
---------- Begin Simulation Statistics ----------
simSeconds                                   0.000039                       # Number of seconds simulated (Second)
simTicks                                     38557000                       # Number of ticks simulated (Tick)
finalTick                                    38557000                       # Number of ticks from beginning of simulation (restored from checkpoints and never reset) (Tick)
simFreq                                  1000000000000                       # The number of ticks per simulated second ((Tick/Second))
hostSeconds                                      0.02                       # Real time elapsed on the host (Second)
hostTickRate                               1667406016                       # The number of ticks simulated per host second (ticks/s) ((Tick/Second))
hostMemory                                    2228040                       # Number of bytes of host memory used (Byte)
simInsts                                         4988                       # Number of instructions simulated (Count)
simOps                                           5770                       # Number of ops (including micro ops) simulated (Count)
hostInstRate                                   214651                       # Simulator instruction rate (inst/s) ((Count/Second))
hostOpRate                                     248197                       # Simulator op (including micro ops) rate (op/s) ((Count/Second))
system.clk_domain.clock                           500                       # Clock period in ticks (Tick)
system.clk_domain.voltage_domain.voltage            1                       # Voltage in Volts (Volt)
system.cpu.numCycles                            77114                       # Number of cpu cycles simulated (Cycle)
system.cpu.numWorkItemsStarted                      0                       # Number of work items this cpu started (Count)
system.cpu.numWorkItemsCompleted                    0                       # Number of work items this cpu completed (Count)
system.cpu.exec_context.thread_0.numInsts         4988                       # Number of instructions committed (Count)
system.cpu.exec_context.thread_0.numOps          5770                       # Number of ops (including micro ops) committed (Count)
system.cpu.exec_context.thread_0.numIntAluAccesses         4980                       # Number of integer alu accesses (Count)
system.cpu.exec_context.thread_0.numFpAluAccesses            0                       # Number of float alu accesses (Count)
system.cpu.exec_context.thread_0.numVecAluAccesses            0                       # Number of vector alu accesses (Count)
system.cpu.exec_context.thread_0.numCallsReturns          215                       # Number of times a function call or return occured (Count)
system.cpu.exec_context.thread_0.numCondCtrlInsts          800                       # Number of instructions that are conditional controls (Count)
system.cpu.exec_context.thread_0.numIntInsts         4980                       # Number of integer instructions (Count)
system.cpu.exec_context.thread_0.numFpInsts            0                       # Number of float instructions (Count)
system.cpu.exec_context.thread_0.numVecInsts            0                       # Number of vector instructions (Count)
system.cpu.exec_context.thread_0.numIntRegReads         5878                       # Number of times the integer registers were read (Count)
system.cpu.exec_context.thread_0.numIntRegWrites         2991                       # Number of times the integer registers were written (Count)
system.cpu.exec_context.thread_0.numFpRegReads            0                       # Number of times the floating registers were read (Count)
system.cpu.exec_context.thread_0.numFpRegWrites            0                       # Number of times the floating registers were written (Count)
system.cpu.exec_context.thread_0.numVecRegReads           16                       # Number of times the vector registers were read (Count)
system.cpu.exec_context.thread_0.numVecRegWrites            0                       # Number of times the vector registers were written (Count)
system.cpu.exec_context.thread_0.numVecPredRegReads            0                       # Number of times the predicate registers were read (Count)
system.cpu.exec_context.thread_0.numVecPredRegWrites            0                       # Number of times the predicate registers were written (Count)
system.cpu.exec_context.thread_0.numCCRegReads        20690                       # Number of times the CC registers were read (Count)
system.cpu.exec_context.thread_0.numCCRegWrites         2647                       # Number of times the CC registers were written (Count)
system.cpu.exec_context.thread_0.numMiscRegReads         2084                       # Number of times the Misc registers were read (Count)
system.cpu.exec_context.thread_0.numMiscRegWrites           23                       # Number of times the Misc registers were written (Count)
system.cpu.exec_context.thread_0.numMemRefs         2038                       # Number of memory refs (Count)
system.cpu.exec_context.thread_0.numLoadInsts         1085                       # Number of load instructions (Count)
system.cpu.exec_context.thread_0.numStoreInsts          953                       # Number of store instructions (Count)
system.cpu.exec_context.thread_0.numIdleCycles     0.002000                       # Number of idle cycles (Cycle)
system.cpu.exec_context.thread_0.numBusyCycles 77113.998000                       # Number of busy cycles (Cycle)
system.cpu.exec_context.thread_0.notIdleFraction     1.000000                       # Percentage of non-idle cycles (Ratio)
system.cpu.exec_context.thread_0.idleFraction     0.000000                       # Percentage of idle cycles (Ratio)
system.cpu.exec_context.thread_0.numBranches         1107                       # Number of branches fetched (Count)
system.cpu.exec_context.thread_0.statExecutedInstType::No_OpClass            0      0.00%      0.00% # Class of executed instruction. (Count)
system.cpu.exec_context.thread_0.statExecutedInstType::IntAlu         3789     64.95%     64.95% # Class of executed instruction. (Count)
system.cpu.exec_context.thread_0.statExecutedInstType::IntMult            4      0.07%     65.02% # Class of executed instruction. (Count)
system.cpu.exec_context.thread_0.statExecutedInstType::IntDiv            0      0.00%     65.02% # Class of executed instruction. (Count)
system.cpu.exec_context.thread_0.statExecutedInstType::FloatAdd            0      0.00%     65.02% # Class of executed instruction. (Count)
system.cpu.exec_context.thread_0.statExecutedInstType::FloatCmp            0      0.00%     65.02% # Class of executed instruction. (Count)
system.cpu.exec_context.thread_0.statExecutedInstType::FloatCvt            0      0.00%     65.02% # Class of executed instruction. (Count)
system.cpu.exec_context.thread_0.statExecutedInstType::FloatMult            0      0.00%     65.02% # Class of executed instruction. (Count)
system.cpu.exec_context.thread_0.statExecutedInstType::FloatMultAcc            0      0.00%     65.02% # Class of executed instruction. (Count)
system.cpu.exec_context.thread_0.statExecutedInstType::FloatDiv            0      0.00%     65.02% # Class of executed instruction. (Count)
system.cpu.exec_context.thread_0.statExecutedInstType::FloatMisc            0      0.00%     65.02% # Class of executed instruction. (Count)
system.cpu.exec_context.thread_0.statExecutedInstType::FloatSqrt            0      0.00%     65.02% # Class of executed instruction. (Count)
system.cpu.exec_context.thread_0.statExecutedInstType::SimdAdd            0      0.00%     65.02% # Class of executed instruction. (Count)
system.cpu.exec_context.thread_0.statExecutedInstType::SimdAddAcc            0      0.00%     65.02% # Class of executed instruction. (Count)
system.cpu.exec_context.thread_0.statExecutedInstType::SimdAlu            0      0.00%     65.02% # Class of executed instruction. (Count)
system.cpu.exec_context.thread_0.statExecutedInstType::SimdCmp            0      0.00%     65.02% # Class of executed instruction. (Count)
system.cpu.exec_context.thread_0.statExecutedInstType::SimdCvt            0      0.00%     65.02% # Class of executed instruction. (Count)
system.cpu.exec_context.thread_0.statExecutedInstType::SimdMisc            0      0.00%     65.02% # Class of executed instruction. (Count)
system.cpu.exec_context.thread_0.statExecutedInstType::SimdMult            0      0.00%     65.02% # Class of executed instruction. (Count)
system.cpu.exec_context.thread_0.statExecutedInstType::SimdMultAcc            0      0.00%     65.02% # Class of executed instruction. (Count)
system.cpu.exec_context.thread_0.statExecutedInstType::SimdShift            0      0.00%     65.02% # Class of executed instruction. (Count)
system.cpu.exec_context.thread_0.statExecutedInstType::SimdShiftAcc            0      0.00%     65.02% # Class of executed instruction. (Count)
system.cpu.exec_context.thread_0.statExecutedInstType::SimdDiv            0      0.00%     65.02% # Class of executed instruction. (Count)
system.cpu.exec_context.thread_0.statExecutedInstType::SimdSqrt            0      0.00%     65.02% # Class of executed instruction. (Count)
system.cpu.exec_context.thread_0.statExecutedInstType::SimdFloatAdd            0      0.00%     65.02% # Class of executed instruction. (Count)
system.cpu.exec_context.thread_0.statExecutedInstType::SimdFloatAlu            0      0.00%     65.02% # Class of executed instruction. (Count)
system.cpu.exec_context.thread_0.statExecutedInstType::SimdFloatCmp            0      0.00%     65.02% # Class of executed instruction. (Count)
system.cpu.exec_context.thread_0.statExecutedInstType::SimdFloatCvt            0      0.00%     65.02% # Class of executed instruction. (Count)
system.cpu.exec_context.thread_0.statExecutedInstType::SimdFloatDiv            0      0.00%     65.02% # Class of executed instruction. (Count)
system.cpu.exec_context.thread_0.statExecutedInstType::SimdFloatMisc            3      0.05%     65.07% # Class of executed instruction. (Count)
system.cpu.exec_context.thread_0.statExecutedInstType::SimdFloatMult            0      0.00%     65.07% # Class of executed instruction. (Count)
system.cpu.exec_context.thread_0.statExecutedInstType::SimdFloatMultAcc            0      0.00%     65.07% # Class of executed instruction. (Count)
system.cpu.exec_context.thread_0.statExecutedInstType::SimdFloatSqrt            0      0.00%     65.07% # Class of executed instruction. (Count)
system.cpu.exec_context.thread_0.statExecutedInstType::SimdReduceAdd            0      0.00%     65.07% # Class of executed instruction. (Count)
system.cpu.exec_context.thread_0.statExecutedInstType::SimdReduceAlu            0      0.00%     65.07% # Class of executed instruction. (Count)
system.cpu.exec_context.thread_0.statExecutedInstType::SimdReduceCmp            0      0.00%     65.07% # Class of executed instruction. (Count)
system.cpu.exec_context.thread_0.statExecutedInstType::SimdFloatReduceAdd            0      0.00%     65.07% # Class of executed instruction. (Count)
system.cpu.exec_context.thread_0.statExecutedInstType::SimdFloatReduceCmp            0      0.00%     65.07% # Class of executed instruction. (Count)
system.cpu.exec_context.thread_0.statExecutedInstType::SimdAes            0      0.00%     65.07% # Class of executed instruction. (Count)
system.cpu.exec_context.thread_0.statExecutedInstType::SimdAesMix            0      0.00%     65.07% # Class of executed instruction. (Count)
system.cpu.exec_context.thread_0.statExecutedInstType::SimdSha1Hash            0      0.00%     65.07% # Class of executed instruction. (Count)
system.cpu.exec_context.thread_0.statExecutedInstType::SimdSha1Hash2            0      0.00%     65.07% # Class of executed instruction. (Count)
system.cpu.exec_context.thread_0.statExecutedInstType::SimdSha256Hash            0      0.00%     65.07% # Class of executed instruction. (Count)
system.cpu.exec_context.thread_0.statExecutedInstType::SimdSha256Hash2            0      0.00%     65.07% # Class of executed instruction. (Count)
system.cpu.exec_context.thread_0.statExecutedInstType::SimdShaSigma2            0      0.00%     65.07% # Class of executed instruction. (Count)
system.cpu.exec_context.thread_0.statExecutedInstType::SimdShaSigma3            0      0.00%     65.07% # Class of executed instruction. (Count)
system.cpu.exec_context.thread_0.statExecutedInstType::SimdPredAlu            0      0.00%     65.07% # Class of executed instruction. (Count)
system.cpu.exec_context.thread_0.statExecutedInstType::MemRead         1085     18.60%     83.66% # Class of executed instruction. (Count)
system.cpu.exec_context.thread_0.statExecutedInstType::MemWrite          953     16.34%    100.00% # Class of executed instruction. (Count)
system.cpu.exec_context.thread_0.statExecutedInstType::FloatMemRead            0      0.00%    100.00% # Class of executed instruction. (Count)
system.cpu.exec_context.thread_0.statExecutedInstType::FloatMemWrite            0      0.00%    100.00% # Class of executed instruction. (Count)
system.cpu.exec_context.thread_0.statExecutedInstType::IprAccess            0      0.00%    100.00% # Class of executed instruction. (Count)
system.cpu.exec_context.thread_0.statExecutedInstType::InstPrefetch            0      0.00%    100.00% # Class of executed instruction. (Count)
system.cpu.exec_context.thread_0.statExecutedInstType::total         5834                       # Class of executed instruction. (Count)
system.cpu.l1cache.demandHits::cpu.inst          4793                       # number of demand (read+write) hits (Count)
system.cpu.l1cache.demandHits::cpu.data          1846                       # number of demand (read+write) hits (Count)
system.cpu.l1cache.demandHits::total             6639                       # number of demand (read+write) hits (Count)
system.cpu.l1cache.overallHits::cpu.inst         4793                       # number of overall hits (Count)
system.cpu.l1cache.overallHits::cpu.data         1846                       # number of overall hits (Count)
system.cpu.l1cache.overallHits::total            6639                       # number of overall hits (Count)
system.cpu.l1cache.demandMisses::cpu.inst          237                       # number of demand (read+write) misses (Count)
system.cpu.l1cache.demandMisses::cpu.data          129                       # number of demand (read+write) misses (Count)
system.cpu.l1cache.demandMisses::total            366                       # number of demand (read+write) misses (Count)
system.cpu.l1cache.overallMisses::cpu.inst          237                       # number of overall misses (Count)
system.cpu.l1cache.overallMisses::cpu.data          129                       # number of overall misses (Count)
system.cpu.l1cache.overallMisses::total           366                       # number of overall misses (Count)
system.cpu.l1cache.demandMissLatency::cpu.inst     16216500                       # number of demand (read+write) miss ticks (Tick)
system.cpu.l1cache.demandMissLatency::cpu.data      8845500                       # number of demand (read+write) miss ticks (Tick)
system.cpu.l1cache.demandMissLatency::total     25062000                       # number of demand (read+write) miss ticks (Tick)
system.cpu.l1cache.overallMissLatency::cpu.inst     16216500                       # number of overall miss ticks (Tick)
system.cpu.l1cache.overallMissLatency::cpu.data      8845500                       # number of overall miss ticks (Tick)
system.cpu.l1cache.overallMissLatency::total     25062000                       # number of overall miss ticks (Tick)
system.cpu.l1cache.demandAccesses::cpu.inst         5030                       # number of demand (read+write) accesses (Count)
system.cpu.l1cache.demandAccesses::cpu.data         1975                       # number of demand (read+write) accesses (Count)
system.cpu.l1cache.demandAccesses::total         7005                       # number of demand (read+write) accesses (Count)
system.cpu.l1cache.overallAccesses::cpu.inst         5030                       # number of overall (read+write) accesses (Count)
system.cpu.l1cache.overallAccesses::cpu.data         1975                       # number of overall (read+write) accesses (Count)
system.cpu.l1cache.overallAccesses::total         7005                       # number of overall (read+write) accesses (Count)
system.cpu.l1cache.demandMissRate::cpu.inst     0.047117                       # miss rate for demand accesses (Ratio)
system.cpu.l1cache.demandMissRate::cpu.data     0.065316                       # miss rate for demand accesses (Ratio)
system.cpu.l1cache.demandMissRate::total     0.052248                       # miss rate for demand accesses (Ratio)
system.cpu.l1cache.overallMissRate::cpu.inst     0.047117                       # miss rate for overall accesses (Ratio)
system.cpu.l1cache.overallMissRate::cpu.data     0.065316                       # miss rate for overall accesses (Ratio)
system.cpu.l1cache.overallMissRate::total     0.052248                       # miss rate for overall accesses (Ratio)
system.cpu.l1cache.demandAvgMissLatency::cpu.inst 68424.050633                       # average overall miss latency in ticks ((Tick/Count))
system.cpu.l1cache.demandAvgMissLatency::cpu.data 68569.767442                       # average overall miss latency in ticks ((Tick/Count))
system.cpu.l1cache.demandAvgMissLatency::total 68475.409836                       # average overall miss latency in ticks ((Tick/Count))
system.cpu.l1cache.overallAvgMissLatency::cpu.inst 68424.050633                       # average overall miss latency ((Tick/Count))
system.cpu.l1cache.overallAvgMissLatency::cpu.data 68569.767442                       # average overall miss latency ((Tick/Count))
system.cpu.l1cache.overallAvgMissLatency::total 68475.409836                       # average overall miss latency ((Tick/Count))
system.cpu.l1cache.blockedCycles::no_mshrs            0                       # number of cycles access was blocked (Cycle)
system.cpu.l1cache.blockedCycles::no_targets            0                       # number of cycles access was blocked (Cycle)
system.cpu.l1cache.blockedCauses::no_mshrs            0                       # number of times access was blocked (Count)
system.cpu.l1cache.blockedCauses::no_targets            0                       # number of times access was blocked (Count)
system.cpu.l1cache.avgBlocked::no_mshrs           nan                       # average number of cycles each access was blocked ((Cycle/Count))
system.cpu.l1cache.avgBlocked::no_targets          nan                       # average number of cycles each access was blocked ((Cycle/Count))
system.cpu.l1cache.writebacks::writebacks           18                       # number of writebacks (Count)
system.cpu.l1cache.writebacks::total               18                       # number of writebacks (Count)
system.cpu.l1cache.demandMshrMisses::cpu.inst          237                       # number of demand (read+write) MSHR misses (Count)
system.cpu.l1cache.demandMshrMisses::cpu.data          129                       # number of demand (read+write) MSHR misses (Count)
system.cpu.l1cache.demandMshrMisses::total          366                       # number of demand (read+write) MSHR misses (Count)
system.cpu.l1cache.overallMshrMisses::cpu.inst          237                       # number of overall MSHR misses (Count)
system.cpu.l1cache.overallMshrMisses::cpu.data          129                       # number of overall MSHR misses (Count)
system.cpu.l1cache.overallMshrMisses::total          366                       # number of overall MSHR misses (Count)
system.cpu.l1cache.demandMshrMissLatency::cpu.inst     15979500                       # number of demand (read+write) MSHR miss ticks (Tick)
system.cpu.l1cache.demandMshrMissLatency::cpu.data      8716500                       # number of demand (read+write) MSHR miss ticks (Tick)
system.cpu.l1cache.demandMshrMissLatency::total     24696000                       # number of demand (read+write) MSHR miss ticks (Tick)
system.cpu.l1cache.overallMshrMissLatency::cpu.inst     15979500                       # number of overall MSHR miss ticks (Tick)
system.cpu.l1cache.overallMshrMissLatency::cpu.data      8716500                       # number of overall MSHR miss ticks (Tick)
system.cpu.l1cache.overallMshrMissLatency::total     24696000                       # number of overall MSHR miss ticks (Tick)
system.cpu.l1cache.demandMshrMissRate::cpu.inst     0.047117                       # mshr miss ratio for demand accesses (Ratio)
system.cpu.l1cache.demandMshrMissRate::cpu.data     0.065316                       # mshr miss ratio for demand accesses (Ratio)
system.cpu.l1cache.demandMshrMissRate::total     0.052248                       # mshr miss ratio for demand accesses (Ratio)
system.cpu.l1cache.overallMshrMissRate::cpu.inst     0.047117                       # mshr miss ratio for overall accesses (Ratio)
system.cpu.l1cache.overallMshrMissRate::cpu.data     0.065316                       # mshr miss ratio for overall accesses (Ratio)
system.cpu.l1cache.overallMshrMissRate::total     0.052248                       # mshr miss ratio for overall accesses (Ratio)
system.cpu.l1cache.demandAvgMshrMissLatency::cpu.inst 67424.050633                       # average overall mshr miss latency ((Tick/Count))
system.cpu.l1cache.demandAvgMshrMissLatency::cpu.data 67569.767442                       # average overall mshr miss latency ((Tick/Count))
system.cpu.l1cache.demandAvgMshrMissLatency::total 67475.409836                       # average overall mshr miss latency ((Tick/Count))
system.cpu.l1cache.overallAvgMshrMissLatency::cpu.inst 67424.050633                       # average overall mshr miss latency ((Tick/Count))
system.cpu.l1cache.overallAvgMshrMissLatency::cpu.data 67569.767442                       # average overall mshr miss latency ((Tick/Count))
system.cpu.l1cache.overallAvgMshrMissLatency::total 67475.409836                       # average overall mshr miss latency ((Tick/Count))
system.cpu.l1cache.replacements                    75                       # number of replacements (Count)
system.cpu.l1cache.LoadLockedReq.hits::cpu.data           11                       # number of LoadLockedReq hits (Count)
system.cpu.l1cache.LoadLockedReq.hits::total           11                       # number of LoadLockedReq hits (Count)
system.cpu.l1cache.LoadLockedReq.accesses::cpu.data           11                       # number of LoadLockedReq accesses(hits+misses) (Count)
system.cpu.l1cache.LoadLockedReq.accesses::total           11                       # number of LoadLockedReq accesses(hits+misses) (Count)
system.cpu.l1cache.ReadReq.hits::cpu.inst         4793                       # number of ReadReq hits (Count)
system.cpu.l1cache.ReadReq.hits::cpu.data          964                       # number of ReadReq hits (Count)
system.cpu.l1cache.ReadReq.hits::total           5757                       # number of ReadReq hits (Count)
system.cpu.l1cache.ReadReq.misses::cpu.inst          237                       # number of ReadReq misses (Count)
system.cpu.l1cache.ReadReq.misses::cpu.data           86                       # number of ReadReq misses (Count)
system.cpu.l1cache.ReadReq.misses::total          323                       # number of ReadReq misses (Count)
system.cpu.l1cache.ReadReq.missLatency::cpu.inst     16216500                       # number of ReadReq miss ticks (Tick)
system.cpu.l1cache.ReadReq.missLatency::cpu.data      5650000                       # number of ReadReq miss ticks (Tick)
system.cpu.l1cache.ReadReq.missLatency::total     21866500                       # number of ReadReq miss ticks (Tick)
system.cpu.l1cache.ReadReq.accesses::cpu.inst         5030                       # number of ReadReq accesses(hits+misses) (Count)
system.cpu.l1cache.ReadReq.accesses::cpu.data         1050                       # number of ReadReq accesses(hits+misses) (Count)
system.cpu.l1cache.ReadReq.accesses::total         6080                       # number of ReadReq accesses(hits+misses) (Count)
system.cpu.l1cache.ReadReq.missRate::cpu.inst     0.047117                       # miss rate for ReadReq accesses (Ratio)
system.cpu.l1cache.ReadReq.missRate::cpu.data     0.081905                       # miss rate for ReadReq accesses (Ratio)
system.cpu.l1cache.ReadReq.missRate::total     0.053125                       # miss rate for ReadReq accesses (Ratio)
system.cpu.l1cache.ReadReq.avgMissLatency::cpu.inst 68424.050633                       # average ReadReq miss latency ((Tick/Count))
system.cpu.l1cache.ReadReq.avgMissLatency::cpu.data 65697.674419                       # average ReadReq miss latency ((Tick/Count))
system.cpu.l1cache.ReadReq.avgMissLatency::total 67698.142415                       # average ReadReq miss latency ((Tick/Count))
system.cpu.l1cache.ReadReq.mshrMisses::cpu.inst          237                       # number of ReadReq MSHR misses (Count)
system.cpu.l1cache.ReadReq.mshrMisses::cpu.data           86                       # number of ReadReq MSHR misses (Count)
system.cpu.l1cache.ReadReq.mshrMisses::total          323                       # number of ReadReq MSHR misses (Count)
system.cpu.l1cache.ReadReq.mshrMissLatency::cpu.inst     15979500                       # number of ReadReq MSHR miss ticks (Tick)
system.cpu.l1cache.ReadReq.mshrMissLatency::cpu.data      5564000                       # number of ReadReq MSHR miss ticks (Tick)
system.cpu.l1cache.ReadReq.mshrMissLatency::total     21543500                       # number of ReadReq MSHR miss ticks (Tick)
system.cpu.l1cache.ReadReq.mshrMissRate::cpu.inst     0.047117                       # mshr miss rate for ReadReq accesses (Ratio)
system.cpu.l1cache.ReadReq.mshrMissRate::cpu.data     0.081905                       # mshr miss rate for ReadReq accesses (Ratio)
system.cpu.l1cache.ReadReq.mshrMissRate::total     0.053125                       # mshr miss rate for ReadReq accesses (Ratio)
system.cpu.l1cache.ReadReq.avgMshrMissLatency::cpu.inst 67424.050633                       # average ReadReq mshr miss latency ((Tick/Count))
system.cpu.l1cache.ReadReq.avgMshrMissLatency::cpu.data 64697.674419                       # average ReadReq mshr miss latency ((Tick/Count))
system.cpu.l1cache.ReadReq.avgMshrMissLatency::total 66698.142415                       # average ReadReq mshr miss latency ((Tick/Count))
system.cpu.l1cache.StoreCondReq.hits::cpu.data           11                       # number of StoreCondReq hits (Count)
system.cpu.l1cache.StoreCondReq.hits::total           11                       # number of StoreCondReq hits (Count)
system.cpu.l1cache.StoreCondReq.accesses::cpu.data           11                       # number of StoreCondReq accesses(hits+misses) (Count)
system.cpu.l1cache.StoreCondReq.accesses::total           11                       # number of StoreCondReq accesses(hits+misses) (Count)
system.cpu.l1cache.WriteReq.hits::cpu.data          882                       # number of WriteReq hits (Count)
system.cpu.l1cache.WriteReq.hits::total           882                       # number of WriteReq hits (Count)
system.cpu.l1cache.WriteReq.misses::cpu.data           43                       # number of WriteReq misses (Count)
system.cpu.l1cache.WriteReq.misses::total           43                       # number of WriteReq misses (Count)
system.cpu.l1cache.WriteReq.missLatency::cpu.data      3195500                       # number of WriteReq miss ticks (Tick)
system.cpu.l1cache.WriteReq.missLatency::total      3195500                       # number of WriteReq miss ticks (Tick)
system.cpu.l1cache.WriteReq.accesses::cpu.data          925                       # number of WriteReq accesses(hits+misses) (Count)
system.cpu.l1cache.WriteReq.accesses::total          925                       # number of WriteReq accesses(hits+misses) (Count)
system.cpu.l1cache.WriteReq.missRate::cpu.data     0.046486                       # miss rate for WriteReq accesses (Ratio)
system.cpu.l1cache.WriteReq.missRate::total     0.046486                       # miss rate for WriteReq accesses (Ratio)
system.cpu.l1cache.WriteReq.avgMissLatency::cpu.data 74313.953488                       # average WriteReq miss latency ((Tick/Count))
system.cpu.l1cache.WriteReq.avgMissLatency::total 74313.953488                       # average WriteReq miss latency ((Tick/Count))
system.cpu.l1cache.WriteReq.mshrMisses::cpu.data           43                       # number of WriteReq MSHR misses (Count)
system.cpu.l1cache.WriteReq.mshrMisses::total           43                       # number of WriteReq MSHR misses (Count)
system.cpu.l1cache.WriteReq.mshrMissLatency::cpu.data      3152500                       # number of WriteReq MSHR miss ticks (Tick)
system.cpu.l1cache.WriteReq.mshrMissLatency::total      3152500                       # number of WriteReq MSHR miss ticks (Tick)
system.cpu.l1cache.WriteReq.mshrMissRate::cpu.data     0.046486                       # mshr miss rate for WriteReq accesses (Ratio)
system.cpu.l1cache.WriteReq.mshrMissRate::total     0.046486                       # mshr miss rate for WriteReq accesses (Ratio)
system.cpu.l1cache.WriteReq.avgMshrMissLatency::cpu.data 73313.953488                       # average WriteReq mshr miss latency ((Tick/Count))
system.cpu.l1cache.WriteReq.avgMshrMissLatency::total 73313.953488                       # average WriteReq mshr miss latency ((Tick/Count))
system.cpu.l1cache.power_state.pwrStateResidencyTicks::UNDEFINED     38557000                       # Cumulative time (in ticks) in various power states (Tick)
system.cpu.l1cache.tags.tagsInUse          168.078238                       # Average ticks per tags in use ((Tick/Count))
system.cpu.l1cache.tags.totalRefs                7027                       # Total number of references to valid blocks. (Count)
system.cpu.l1cache.tags.sampledRefs               366                       # Sample count of references to valid blocks. (Count)
system.cpu.l1cache.tags.avgRefs             19.199454                       # Average number of references to valid blocks. ((Count/Count))
system.cpu.l1cache.tags.warmupTick              81000                       # The tick when the warmup percentage was hit. (Tick)
system.cpu.l1cache.tags.occupancies::cpu.inst    96.114288                       # Average occupied blocks per tick, per requestor ((Count/Tick))
system.cpu.l1cache.tags.occupancies::cpu.data    71.963950                       # Average occupied blocks per tick, per requestor ((Count/Tick))
system.cpu.l1cache.tags.avgOccs::cpu.inst     0.187723                       # Average percentage of cache occupancy ((Ratio/Tick))
system.cpu.l1cache.tags.avgOccs::cpu.data     0.140555                       # Average percentage of cache occupancy ((Ratio/Tick))
system.cpu.l1cache.tags.avgOccs::total       0.328278                       # Average percentage of cache occupancy ((Ratio/Tick))
system.cpu.l1cache.tags.occupanciesTaskId::1024          291                       # Occupied blocks per task id (Count)
system.cpu.l1cache.tags.ageTaskId_1024::0           87                       # Occupied blocks per task id, per block age (Count)
system.cpu.l1cache.tags.ageTaskId_1024::1          204                       # Occupied blocks per task id, per block age (Count)
system.cpu.l1cache.tags.ratioOccsTaskId::1024     0.568359                       # Ratio of occupied blocks and all blocks, per task id (Ratio)
system.cpu.l1cache.tags.tagAccesses             14420                       # Number of tag accesses (Count)
system.cpu.l1cache.tags.dataAccesses            14420                       # Number of data accesses (Count)
system.cpu.l1cache.tags.power_state.pwrStateResidencyTicks::UNDEFINED     38557000                       # Cumulative time (in ticks) in various power states (Tick)
system.cpu.mmu.alignFaults                          0                       # Number of MMU faults due to alignment restrictions (Count)
system.cpu.mmu.prefetchFaults                       0                       # Number of MMU faults due to prefetch (Count)
system.cpu.mmu.domainFaults                         0                       # Number of MMU faults due to domain restrictions (Count)
system.cpu.mmu.permsFaults                          0                       # Number of MMU faults due to permissions restrictions (Count)
system.cpu.mmu.dtb.readHits                         0                       # Read hits (Count)
system.cpu.mmu.dtb.readMisses                       0                       # Read misses (Count)
system.cpu.mmu.dtb.writeHits                        0                       # Write hits (Count)
system.cpu.mmu.dtb.writeMisses                      0                       # Write misses (Count)
system.cpu.mmu.dtb.inserts                          0                       # Number of times an entry is inserted into the TLB (Count)
system.cpu.mmu.dtb.flushTlb                         0                       # Number of times complete TLB was flushed (Count)
system.cpu.mmu.dtb.flushTlbMva                      0                       # Number of times TLB was flushed by MVA (Count)
system.cpu.mmu.dtb.flushTlbMvaAsid                  0                       # Number of times TLB was flushed by MVA & ASID (Count)
system.cpu.mmu.dtb.flushTlbAsid                     0                       # Number of times TLB was flushed by ASID (Count)
system.cpu.mmu.dtb.flushedEntries                   0                       # Number of entries that have been flushed from TLB (Count)
system.cpu.mmu.dtb.readAccesses                     0                       # Read accesses (Count)
system.cpu.mmu.dtb.writeAccesses                    0                       # Write accesses (Count)
system.cpu.mmu.dtb.hits                             0                       # Total TLB (inst and data) hits (Count)
system.cpu.mmu.dtb.misses                           0                       # Total TLB (inst and data) misses (Count)
system.cpu.mmu.dtb.accesses                         0                       # Total TLB (inst and data) accesses (Count)
system.cpu.mmu.dtb_walker.walks                     0                       # Table walker walks requested (Count)
system.cpu.mmu.dtb_walker.requestOrigin_Requested::Data            0                       # Table walker requests started/completed, data/inst (Count)
system.cpu.mmu.dtb_walker.requestOrigin_Requested::Inst            0                       # Table walker requests started/completed, data/inst (Count)
system.cpu.mmu.dtb_walker.requestOrigin_Requested::total            0                       # Table walker requests started/completed, data/inst (Count)
system.cpu.mmu.dtb_walker.requestOrigin_Completed::Data            0                       # Table walker requests started/completed, data/inst (Count)
system.cpu.mmu.dtb_walker.requestOrigin_Completed::Inst            0                       # Table walker requests started/completed, data/inst (Count)
system.cpu.mmu.dtb_walker.requestOrigin_Completed::total            0                       # Table walker requests started/completed, data/inst (Count)
system.cpu.mmu.dtb_walker.requestOrigin::total            0                       # Table walker requests started/completed, data/inst (Count)
system.cpu.mmu.dtb_walker.power_state.pwrStateResidencyTicks::UNDEFINED     38557000                       # Cumulative time (in ticks) in various power states (Tick)
system.cpu.mmu.itb.instHits                         0                       # Inst hits (Count)
system.cpu.mmu.itb.instMisses                       0                       # Inst misses (Count)
system.cpu.mmu.itb.inserts                          0                       # Number of times an entry is inserted into the TLB (Count)
system.cpu.mmu.itb.flushTlb                         0                       # Number of times complete TLB was flushed (Count)
system.cpu.mmu.itb.flushTlbMva                      0                       # Number of times TLB was flushed by MVA (Count)
system.cpu.mmu.itb.flushTlbMvaAsid                  0                       # Number of times TLB was flushed by MVA & ASID (Count)
system.cpu.mmu.itb.flushTlbAsid                     0                       # Number of times TLB was flushed by ASID (Count)
system.cpu.mmu.itb.flushedEntries                   0                       # Number of entries that have been flushed from TLB (Count)
system.cpu.mmu.itb.instAccesses                     0                       # Inst accesses (Count)
system.cpu.mmu.itb.hits                             0                       # Total TLB (inst and data) hits (Count)
system.cpu.mmu.itb.misses                           0                       # Total TLB (inst and data) misses (Count)
system.cpu.mmu.itb.accesses                         0                       # Total TLB (inst and data) accesses (Count)
system.cpu.mmu.itb_walker.walks                     0                       # Table walker walks requested (Count)
system.cpu.mmu.itb_walker.requestOrigin_Requested::Data            0                       # Table walker requests started/completed, data/inst (Count)
system.cpu.mmu.itb_walker.requestOrigin_Requested::Inst            0                       # Table walker requests started/completed, data/inst (Count)
system.cpu.mmu.itb_walker.requestOrigin_Requested::total            0                       # Table walker requests started/completed, data/inst (Count)
system.cpu.mmu.itb_walker.requestOrigin_Completed::Data            0                       # Table walker requests started/completed, data/inst (Count)
system.cpu.mmu.itb_walker.requestOrigin_Completed::Inst            0                       # Table walker requests started/completed, data/inst (Count)
system.cpu.mmu.itb_walker.requestOrigin_Completed::total            0                       # Table walker requests started/completed, data/inst (Count)
system.cpu.mmu.itb_walker.requestOrigin::total            0                       # Table walker requests started/completed, data/inst (Count)
system.cpu.mmu.itb_walker.power_state.pwrStateResidencyTicks::UNDEFINED     38557000                       # Cumulative time (in ticks) in various power states (Tick)
system.cpu.mmu.l2_shared.instHits                   0                       # Inst hits (Count)
system.cpu.mmu.l2_shared.instMisses                 0                       # Inst misses (Count)
system.cpu.mmu.l2_shared.inserts                    0                       # Number of times an entry is inserted into the TLB (Count)
system.cpu.mmu.l2_shared.flushTlb                   0                       # Number of times complete TLB was flushed (Count)
system.cpu.mmu.l2_shared.flushTlbMva                0                       # Number of times TLB was flushed by MVA (Count)
system.cpu.mmu.l2_shared.flushTlbMvaAsid            0                       # Number of times TLB was flushed by MVA & ASID (Count)
system.cpu.mmu.l2_shared.flushTlbAsid               0                       # Number of times TLB was flushed by ASID (Count)
system.cpu.mmu.l2_shared.flushedEntries             0                       # Number of entries that have been flushed from TLB (Count)
system.cpu.mmu.l2_shared.instAccesses               0                       # Inst accesses (Count)
system.cpu.mmu.l2_shared.hits                       0                       # Total TLB (inst and data) hits (Count)
system.cpu.mmu.l2_shared.misses                     0                       # Total TLB (inst and data) misses (Count)
system.cpu.mmu.l2_shared.accesses                   0                       # Total TLB (inst and data) accesses (Count)
system.cpu.mmu.stage2_dtb.readHits                  0                       # Read hits (Count)
system.cpu.mmu.stage2_dtb.readMisses                0                       # Read misses (Count)
system.cpu.mmu.stage2_dtb.writeHits                 0                       # Write hits (Count)
system.cpu.mmu.stage2_dtb.writeMisses               0                       # Write misses (Count)
system.cpu.mmu.stage2_dtb.inserts                   0                       # Number of times an entry is inserted into the TLB (Count)
system.cpu.mmu.stage2_dtb.flushTlb                  0                       # Number of times complete TLB was flushed (Count)
system.cpu.mmu.stage2_dtb.flushTlbMva               0                       # Number of times TLB was flushed by MVA (Count)
system.cpu.mmu.stage2_dtb.flushTlbMvaAsid            0                       # Number of times TLB was flushed by MVA & ASID (Count)
system.cpu.mmu.stage2_dtb.flushTlbAsid              0                       # Number of times TLB was flushed by ASID (Count)
system.cpu.mmu.stage2_dtb.flushedEntries            0                       # Number of entries that have been flushed from TLB (Count)
system.cpu.mmu.stage2_dtb.readAccesses              0                       # Read accesses (Count)
system.cpu.mmu.stage2_dtb.writeAccesses             0                       # Write accesses (Count)
system.cpu.mmu.stage2_dtb.hits                      0                       # Total TLB (inst and data) hits (Count)
system.cpu.mmu.stage2_dtb.misses                    0                       # Total TLB (inst and data) misses (Count)
system.cpu.mmu.stage2_dtb.accesses                  0                       # Total TLB (inst and data) accesses (Count)
system.cpu.mmu.stage2_dtb_walker.walks              0                       # Table walker walks requested (Count)
system.cpu.mmu.stage2_dtb_walker.requestOrigin_Requested::Data            0                       # Table walker requests started/completed, data/inst (Count)
system.cpu.mmu.stage2_dtb_walker.requestOrigin_Requested::Inst            0                       # Table walker requests started/completed, data/inst (Count)
system.cpu.mmu.stage2_dtb_walker.requestOrigin_Requested::total            0                       # Table walker requests started/completed, data/inst (Count)
system.cpu.mmu.stage2_dtb_walker.requestOrigin_Completed::Data            0                       # Table walker requests started/completed, data/inst (Count)
system.cpu.mmu.stage2_dtb_walker.requestOrigin_Completed::Inst            0                       # Table walker requests started/completed, data/inst (Count)
system.cpu.mmu.stage2_dtb_walker.requestOrigin_Completed::total            0                       # Table walker requests started/completed, data/inst (Count)
system.cpu.mmu.stage2_dtb_walker.requestOrigin::total            0                       # Table walker requests started/completed, data/inst (Count)
system.cpu.mmu.stage2_dtb_walker.power_state.pwrStateResidencyTicks::UNDEFINED     38557000                       # Cumulative time (in ticks) in various power states (Tick)
system.cpu.mmu.stage2_itb.instHits                  0                       # Inst hits (Count)
system.cpu.mmu.stage2_itb.instMisses                0                       # Inst misses (Count)
system.cpu.mmu.stage2_itb.inserts                   0                       # Number of times an entry is inserted into the TLB (Count)
system.cpu.mmu.stage2_itb.flushTlb                  0                       # Number of times complete TLB was flushed (Count)
system.cpu.mmu.stage2_itb.flushTlbMva               0                       # Number of times TLB was flushed by MVA (Count)
system.cpu.mmu.stage2_itb.flushTlbMvaAsid            0                       # Number of times TLB was flushed by MVA & ASID (Count)
system.cpu.mmu.stage2_itb.flushTlbAsid              0                       # Number of times TLB was flushed by ASID (Count)
system.cpu.mmu.stage2_itb.flushedEntries            0                       # Number of entries that have been flushed from TLB (Count)
system.cpu.mmu.stage2_itb.instAccesses              0                       # Inst accesses (Count)
system.cpu.mmu.stage2_itb.hits                      0                       # Total TLB (inst and data) hits (Count)
system.cpu.mmu.stage2_itb.misses                    0                       # Total TLB (inst and data) misses (Count)
system.cpu.mmu.stage2_itb.accesses                  0                       # Total TLB (inst and data) accesses (Count)
system.cpu.mmu.stage2_itb_walker.walks              0                       # Table walker walks requested (Count)
system.cpu.mmu.stage2_itb_walker.requestOrigin_Requested::Data            0                       # Table walker requests started/completed, data/inst (Count)
system.cpu.mmu.stage2_itb_walker.requestOrigin_Requested::Inst            0                       # Table walker requests started/completed, data/inst (Count)
system.cpu.mmu.stage2_itb_walker.requestOrigin_Requested::total            0                       # Table walker requests started/completed, data/inst (Count)
system.cpu.mmu.stage2_itb_walker.requestOrigin_Completed::Data            0                       # Table walker requests started/completed, data/inst (Count)
system.cpu.mmu.stage2_itb_walker.requestOrigin_Completed::Inst            0                       # Table walker requests started/completed, data/inst (Count)
system.cpu.mmu.stage2_itb_walker.requestOrigin_Completed::total            0                       # Table walker requests started/completed, data/inst (Count)
system.cpu.mmu.stage2_itb_walker.requestOrigin::total            0                       # Table walker requests started/completed, data/inst (Count)
system.cpu.mmu.stage2_itb_walker.power_state.pwrStateResidencyTicks::UNDEFINED     38557000                       # Cumulative time (in ticks) in various power states (Tick)
system.cpu.power_state.pwrStateResidencyTicks::ON     38557000                       # Cumulative time (in ticks) in various power states (Tick)
system.cpu.thread_0.numInsts                        0                       # Number of Instructions committed (Count)
system.cpu.thread_0.numOps                          0                       # Number of Ops committed (Count)
system.cpu.thread_0.numMemRefs                      0                       # Number of Memory References (Count)
system.cpu.workload.numSyscalls                    13                       # Number of system calls (Count)
system.l1bus.transDist::ReadReq                  6080                       # Transaction distribution (Count)
system.l1bus.transDist::ReadResp                 6091                       # Transaction distribution (Count)
system.l1bus.transDist::WriteReq                  925                       # Transaction distribution (Count)
system.l1bus.transDist::WriteResp                 925                       # Transaction distribution (Count)
system.l1bus.transDist::WritebackDirty             18                       # Transaction distribution (Count)
system.l1bus.transDist::CleanEvict                 57                       # Transaction distribution (Count)
system.l1bus.transDist::LoadLockedReq              11                       # Transaction distribution (Count)
system.l1bus.transDist::StoreCondReq               11                       # Transaction distribution (Count)
system.l1bus.transDist::StoreCondResp              11                       # Transaction distribution (Count)
system.l1bus.pktCount_system.cpu.icache_port::system.cpu.l1cache.cpu_side_port        10060                       # Packet count per connected requestor and responder (Count)
system.l1bus.pktCount_system.cpu.dcache_port::system.cpu.l1cache.cpu_side_port         3994                       # Packet count per connected requestor and responder (Count)
system.l1bus.pktCount::total                    14054                       # Packet count per connected requestor and responder (Count)
system.l1bus.pktSize_system.cpu.icache_port::system.cpu.l1cache.cpu_side_port        20120                       # Cumulative packet size per connected requestor and responder (Byte)
system.l1bus.pktSize_system.cpu.dcache_port::system.cpu.l1cache.cpu_side_port         8368                       # Cumulative packet size per connected requestor and responder (Byte)
system.l1bus.pktSize::total                     28488                       # Cumulative packet size per connected requestor and responder (Byte)
system.l1bus.snoops                                75                       # Total snoops (Count)
system.l1bus.snoopTraffic                        1152                       # Total snoop traffic (Byte)
system.l1bus.snoopFanout::samples                7102                       # Request fanout histogram (Count)
system.l1bus.snoopFanout::mean                      0                       # Request fanout histogram (Count)
system.l1bus.snoopFanout::stdev                     0                       # Request fanout histogram (Count)
system.l1bus.snoopFanout::underflows                0      0.00%      0.00% # Request fanout histogram (Count)
system.l1bus.snoopFanout::0                      7102    100.00%    100.00% # Request fanout histogram (Count)
system.l1bus.snoopFanout::1                         0      0.00%    100.00% # Request fanout histogram (Count)
system.l1bus.snoopFanout::overflows                 0      0.00%    100.00% # Request fanout histogram (Count)
system.l1bus.snoopFanout::min_value                 0                       # Request fanout histogram (Count)
system.l1bus.snoopFanout::max_value                 0                       # Request fanout histogram (Count)
system.l1bus.snoopFanout::total                  7102                       # Request fanout histogram (Count)
system.l1bus.power_state.pwrStateResidencyTicks::UNDEFINED     38557000                       # Cumulative time (in ticks) in various power states (Tick)
system.l1bus.reqLayer0.occupancy              3981500                       # Layer occupancy (ticks) (Tick)
system.l1bus.reqLayer0.utilization                0.1                       # Layer utilization (Ratio)
system.l1bus.respLayer0.occupancy             5030000                       # Layer occupancy (ticks) (Tick)
system.l1bus.respLayer0.utilization               0.1                       # Layer utilization (Ratio)
system.l1bus.respLayer1.occupancy             1529000                       # Layer occupancy (ticks) (Tick)
system.l1bus.respLayer1.utilization               0.0                       # Layer utilization (Ratio)
system.l1bus.snoop_filter.totRequests               0                       # Total number of requests made to the snoop filter. (Count)
system.l1bus.snoop_filter.hitSingleRequests            0                       # Number of requests hitting in the snoop filter with a single holder of the requested data. (Count)
system.l1bus.snoop_filter.hitMultiRequests            0                       # Number of requests hitting in the snoop filter with multiple (>1) holders of the requested data. (Count)
system.l1bus.snoop_filter.totSnoops                 0                       # Total number of snoops made to the snoop filter. (Count)
system.l1bus.snoop_filter.hitSingleSnoops            0                       # Number of snoops hitting in the snoop filter with a single holder of the requested data. (Count)
system.l1bus.snoop_filter.hitMultiSnoops            0                       # Number of snoops hitting in the snoop filter with multiple (>1) holders of the requested data. (Count)
system.l2cache.demandHits::cpu.inst                12                       # number of demand (read+write) hits (Count)
system.l2cache.demandHits::cpu.data                 3                       # number of demand (read+write) hits (Count)
system.l2cache.demandHits::total                   15                       # number of demand (read+write) hits (Count)
system.l2cache.overallHits::cpu.inst               12                       # number of overall hits (Count)
system.l2cache.overallHits::cpu.data                3                       # number of overall hits (Count)
system.l2cache.overallHits::total                  15                       # number of overall hits (Count)
system.l2cache.demandMisses::cpu.inst             225                       # number of demand (read+write) misses (Count)
system.l2cache.demandMisses::cpu.data             126                       # number of demand (read+write) misses (Count)
system.l2cache.demandMisses::total                351                       # number of demand (read+write) misses (Count)
system.l2cache.overallMisses::cpu.inst            225                       # number of overall misses (Count)
system.l2cache.overallMisses::cpu.data            126                       # number of overall misses (Count)
system.l2cache.overallMisses::total               351                       # number of overall misses (Count)
system.l2cache.demandMissLatency::cpu.inst     15504000                       # number of demand (read+write) miss ticks (Tick)
system.l2cache.demandMissLatency::cpu.data      8493000                       # number of demand (read+write) miss ticks (Tick)
system.l2cache.demandMissLatency::total      23997000                       # number of demand (read+write) miss ticks (Tick)
system.l2cache.overallMissLatency::cpu.inst     15504000                       # number of overall miss ticks (Tick)
system.l2cache.overallMissLatency::cpu.data      8493000                       # number of overall miss ticks (Tick)
system.l2cache.overallMissLatency::total     23997000                       # number of overall miss ticks (Tick)
system.l2cache.demandAccesses::cpu.inst           237                       # number of demand (read+write) accesses (Count)
system.l2cache.demandAccesses::cpu.data           129                       # number of demand (read+write) accesses (Count)
system.l2cache.demandAccesses::total              366                       # number of demand (read+write) accesses (Count)
system.l2cache.overallAccesses::cpu.inst          237                       # number of overall (read+write) accesses (Count)
system.l2cache.overallAccesses::cpu.data          129                       # number of overall (read+write) accesses (Count)
system.l2cache.overallAccesses::total             366                       # number of overall (read+write) accesses (Count)
system.l2cache.demandMissRate::cpu.inst      0.949367                       # miss rate for demand accesses (Ratio)
system.l2cache.demandMissRate::cpu.data      0.976744                       # miss rate for demand accesses (Ratio)
system.l2cache.demandMissRate::total         0.959016                       # miss rate for demand accesses (Ratio)
system.l2cache.overallMissRate::cpu.inst     0.949367                       # miss rate for overall accesses (Ratio)
system.l2cache.overallMissRate::cpu.data     0.976744                       # miss rate for overall accesses (Ratio)
system.l2cache.overallMissRate::total        0.959016                       # miss rate for overall accesses (Ratio)
system.l2cache.demandAvgMissLatency::cpu.inst 68906.666667                       # average overall miss latency in ticks ((Tick/Count))
system.l2cache.demandAvgMissLatency::cpu.data 67404.761905                       # average overall miss latency in ticks ((Tick/Count))
system.l2cache.demandAvgMissLatency::total 68367.521368                       # average overall miss latency in ticks ((Tick/Count))
system.l2cache.overallAvgMissLatency::cpu.inst 68906.666667                       # average overall miss latency ((Tick/Count))
system.l2cache.overallAvgMissLatency::cpu.data 67404.761905                       # average overall miss latency ((Tick/Count))
system.l2cache.overallAvgMissLatency::total 68367.521368                       # average overall miss latency ((Tick/Count))
system.l2cache.blockedCycles::no_mshrs              0                       # number of cycles access was blocked (Cycle)
system.l2cache.blockedCycles::no_targets            0                       # number of cycles access was blocked (Cycle)
system.l2cache.blockedCauses::no_mshrs              0                       # number of times access was blocked (Count)
system.l2cache.blockedCauses::no_targets            0                       # number of times access was blocked (Count)
system.l2cache.avgBlocked::no_mshrs               nan                       # average number of cycles each access was blocked ((Cycle/Count))
system.l2cache.avgBlocked::no_targets             nan                       # average number of cycles each access was blocked ((Cycle/Count))
system.l2cache.demandMshrMisses::cpu.inst          225                       # number of demand (read+write) MSHR misses (Count)
system.l2cache.demandMshrMisses::cpu.data          126                       # number of demand (read+write) MSHR misses (Count)
system.l2cache.demandMshrMisses::total            351                       # number of demand (read+write) MSHR misses (Count)
system.l2cache.overallMshrMisses::cpu.inst          225                       # number of overall MSHR misses (Count)
system.l2cache.overallMshrMisses::cpu.data          126                       # number of overall MSHR misses (Count)
system.l2cache.overallMshrMisses::total           351                       # number of overall MSHR misses (Count)
system.l2cache.demandMshrMissLatency::cpu.inst     13254000                       # number of demand (read+write) MSHR miss ticks (Tick)
system.l2cache.demandMshrMissLatency::cpu.data      7233000                       # number of demand (read+write) MSHR miss ticks (Tick)
system.l2cache.demandMshrMissLatency::total     20487000                       # number of demand (read+write) MSHR miss ticks (Tick)
system.l2cache.overallMshrMissLatency::cpu.inst     13254000                       # number of overall MSHR miss ticks (Tick)
system.l2cache.overallMshrMissLatency::cpu.data      7233000                       # number of overall MSHR miss ticks (Tick)
system.l2cache.overallMshrMissLatency::total     20487000                       # number of overall MSHR miss ticks (Tick)
system.l2cache.demandMshrMissRate::cpu.inst     0.949367                       # mshr miss ratio for demand accesses (Ratio)
system.l2cache.demandMshrMissRate::cpu.data     0.976744                       # mshr miss ratio for demand accesses (Ratio)
system.l2cache.demandMshrMissRate::total     0.959016                       # mshr miss ratio for demand accesses (Ratio)
system.l2cache.overallMshrMissRate::cpu.inst     0.949367                       # mshr miss ratio for overall accesses (Ratio)
system.l2cache.overallMshrMissRate::cpu.data     0.976744                       # mshr miss ratio for overall accesses (Ratio)
system.l2cache.overallMshrMissRate::total     0.959016                       # mshr miss ratio for overall accesses (Ratio)
system.l2cache.demandAvgMshrMissLatency::cpu.inst 58906.666667                       # average overall mshr miss latency ((Tick/Count))
system.l2cache.demandAvgMshrMissLatency::cpu.data 57404.761905                       # average overall mshr miss latency ((Tick/Count))
system.l2cache.demandAvgMshrMissLatency::total 58367.521368                       # average overall mshr miss latency ((Tick/Count))
system.l2cache.overallAvgMshrMissLatency::cpu.inst 58906.666667                       # average overall mshr miss latency ((Tick/Count))
system.l2cache.overallAvgMshrMissLatency::cpu.data 57404.761905                       # average overall mshr miss latency ((Tick/Count))
system.l2cache.overallAvgMshrMissLatency::total 58367.521368                       # average overall mshr miss latency ((Tick/Count))
system.l2cache.replacements                         0                       # number of replacements (Count)
system.l2cache.ReadExReq.misses::cpu.data           43                       # number of ReadExReq misses (Count)
system.l2cache.ReadExReq.misses::total             43                       # number of ReadExReq misses (Count)
system.l2cache.ReadExReq.missLatency::cpu.data      3088000                       # number of ReadExReq miss ticks (Tick)
system.l2cache.ReadExReq.missLatency::total      3088000                       # number of ReadExReq miss ticks (Tick)
system.l2cache.ReadExReq.accesses::cpu.data           43                       # number of ReadExReq accesses(hits+misses) (Count)
system.l2cache.ReadExReq.accesses::total           43                       # number of ReadExReq accesses(hits+misses) (Count)
system.l2cache.ReadExReq.missRate::cpu.data            1                       # miss rate for ReadExReq accesses (Ratio)
system.l2cache.ReadExReq.missRate::total            1                       # miss rate for ReadExReq accesses (Ratio)
system.l2cache.ReadExReq.avgMissLatency::cpu.data 71813.953488                       # average ReadExReq miss latency ((Tick/Count))
system.l2cache.ReadExReq.avgMissLatency::total 71813.953488                       # average ReadExReq miss latency ((Tick/Count))
system.l2cache.ReadExReq.mshrMisses::cpu.data           43                       # number of ReadExReq MSHR misses (Count)
system.l2cache.ReadExReq.mshrMisses::total           43                       # number of ReadExReq MSHR misses (Count)
system.l2cache.ReadExReq.mshrMissLatency::cpu.data      2658000                       # number of ReadExReq MSHR miss ticks (Tick)
system.l2cache.ReadExReq.mshrMissLatency::total      2658000                       # number of ReadExReq MSHR miss ticks (Tick)
system.l2cache.ReadExReq.mshrMissRate::cpu.data            1                       # mshr miss rate for ReadExReq accesses (Ratio)
system.l2cache.ReadExReq.mshrMissRate::total            1                       # mshr miss rate for ReadExReq accesses (Ratio)
system.l2cache.ReadExReq.avgMshrMissLatency::cpu.data 61813.953488                       # average ReadExReq mshr miss latency ((Tick/Count))
system.l2cache.ReadExReq.avgMshrMissLatency::total 61813.953488                       # average ReadExReq mshr miss latency ((Tick/Count))
system.l2cache.ReadSharedReq.hits::cpu.inst           12                       # number of ReadSharedReq hits (Count)
system.l2cache.ReadSharedReq.hits::cpu.data            3                       # number of ReadSharedReq hits (Count)
system.l2cache.ReadSharedReq.hits::total           15                       # number of ReadSharedReq hits (Count)
system.l2cache.ReadSharedReq.misses::cpu.inst          225                       # number of ReadSharedReq misses (Count)
system.l2cache.ReadSharedReq.misses::cpu.data           83                       # number of ReadSharedReq misses (Count)
system.l2cache.ReadSharedReq.misses::total          308                       # number of ReadSharedReq misses (Count)
system.l2cache.ReadSharedReq.missLatency::cpu.inst     15504000                       # number of ReadSharedReq miss ticks (Tick)
system.l2cache.ReadSharedReq.missLatency::cpu.data      5405000                       # number of ReadSharedReq miss ticks (Tick)
system.l2cache.ReadSharedReq.missLatency::total     20909000                       # number of ReadSharedReq miss ticks (Tick)
system.l2cache.ReadSharedReq.accesses::cpu.inst          237                       # number of ReadSharedReq accesses(hits+misses) (Count)
system.l2cache.ReadSharedReq.accesses::cpu.data           86                       # number of ReadSharedReq accesses(hits+misses) (Count)
system.l2cache.ReadSharedReq.accesses::total          323                       # number of ReadSharedReq accesses(hits+misses) (Count)
system.l2cache.ReadSharedReq.missRate::cpu.inst     0.949367                       # miss rate for ReadSharedReq accesses (Ratio)
system.l2cache.ReadSharedReq.missRate::cpu.data     0.965116                       # miss rate for ReadSharedReq accesses (Ratio)
system.l2cache.ReadSharedReq.missRate::total     0.953560                       # miss rate for ReadSharedReq accesses (Ratio)
system.l2cache.ReadSharedReq.avgMissLatency::cpu.inst 68906.666667                       # average ReadSharedReq miss latency ((Tick/Count))
system.l2cache.ReadSharedReq.avgMissLatency::cpu.data 65120.481928                       # average ReadSharedReq miss latency ((Tick/Count))
system.l2cache.ReadSharedReq.avgMissLatency::total 67886.363636                       # average ReadSharedReq miss latency ((Tick/Count))
system.l2cache.ReadSharedReq.mshrMisses::cpu.inst          225                       # number of ReadSharedReq MSHR misses (Count)
system.l2cache.ReadSharedReq.mshrMisses::cpu.data           83                       # number of ReadSharedReq MSHR misses (Count)
system.l2cache.ReadSharedReq.mshrMisses::total          308                       # number of ReadSharedReq MSHR misses (Count)
system.l2cache.ReadSharedReq.mshrMissLatency::cpu.inst     13254000                       # number of ReadSharedReq MSHR miss ticks (Tick)
system.l2cache.ReadSharedReq.mshrMissLatency::cpu.data      4575000                       # number of ReadSharedReq MSHR miss ticks (Tick)
system.l2cache.ReadSharedReq.mshrMissLatency::total     17829000                       # number of ReadSharedReq MSHR miss ticks (Tick)
system.l2cache.ReadSharedReq.mshrMissRate::cpu.inst     0.949367                       # mshr miss rate for ReadSharedReq accesses (Ratio)
system.l2cache.ReadSharedReq.mshrMissRate::cpu.data     0.965116                       # mshr miss rate for ReadSharedReq accesses (Ratio)
system.l2cache.ReadSharedReq.mshrMissRate::total     0.953560                       # mshr miss rate for ReadSharedReq accesses (Ratio)
system.l2cache.ReadSharedReq.avgMshrMissLatency::cpu.inst 58906.666667                       # average ReadSharedReq mshr miss latency ((Tick/Count))
system.l2cache.ReadSharedReq.avgMshrMissLatency::cpu.data 55120.481928                       # average ReadSharedReq mshr miss latency ((Tick/Count))
system.l2cache.ReadSharedReq.avgMshrMissLatency::total 57886.363636                       # average ReadSharedReq mshr miss latency ((Tick/Count))
system.l2cache.WritebackDirty.hits::writebacks           18                       # number of WritebackDirty hits (Count)
system.l2cache.WritebackDirty.hits::total           18                       # number of WritebackDirty hits (Count)
system.l2cache.WritebackDirty.accesses::writebacks           18                       # number of WritebackDirty accesses(hits+misses) (Count)
system.l2cache.WritebackDirty.accesses::total           18                       # number of WritebackDirty accesses(hits+misses) (Count)
system.l2cache.power_state.pwrStateResidencyTicks::UNDEFINED     38557000                       # Cumulative time (in ticks) in various power states (Tick)
system.l2cache.tags.tagsInUse              186.382983                       # Average ticks per tags in use ((Tick/Count))
system.l2cache.tags.totalRefs                     441                       # Total number of references to valid blocks. (Count)
system.l2cache.tags.sampledRefs                   351                       # Sample count of references to valid blocks. (Count)
system.l2cache.tags.avgRefs                  1.256410                       # Average number of references to valid blocks. ((Count/Count))
system.l2cache.tags.warmupTick                  71000                       # The tick when the warmup percentage was hit. (Tick)
system.l2cache.tags.occupancies::cpu.inst   108.424362                       # Average occupied blocks per tick, per requestor ((Count/Tick))
system.l2cache.tags.occupancies::cpu.data    77.958621                       # Average occupied blocks per tick, per requestor ((Count/Tick))
system.l2cache.tags.avgOccs::cpu.inst        0.026471                       # Average percentage of cache occupancy ((Ratio/Tick))
system.l2cache.tags.avgOccs::cpu.data        0.019033                       # Average percentage of cache occupancy ((Ratio/Tick))
system.l2cache.tags.avgOccs::total           0.045504                       # Average percentage of cache occupancy ((Ratio/Tick))
system.l2cache.tags.occupanciesTaskId::1024          351                       # Occupied blocks per task id (Count)
system.l2cache.tags.ageTaskId_1024::0              86                       # Occupied blocks per task id, per block age (Count)
system.l2cache.tags.ageTaskId_1024::1             265                       # Occupied blocks per task id, per block age (Count)
system.l2cache.tags.ratioOccsTaskId::1024     0.085693                       # Ratio of occupied blocks and all blocks, per task id (Ratio)
system.l2cache.tags.tagAccesses                  3879                       # Number of tag accesses (Count)
system.l2cache.tags.dataAccesses                 3879                       # Number of data accesses (Count)
system.l2cache.tags.power_state.pwrStateResidencyTicks::UNDEFINED     38557000                       # Cumulative time (in ticks) in various power states (Tick)
system.mem_ctrl.avgPriority_cpu.inst::samples       225.00                       # Average QoS priority value for accepted requests (Count)
system.mem_ctrl.avgPriority_cpu.data::samples       126.00                       # Average QoS priority value for accepted requests (Count)
system.mem_ctrl.priorityMinLatency       0.000000017492                       # per QoS priority minimum request to response latency (Second)
system.mem_ctrl.priorityMaxLatency       0.000000675692                       # per QoS priority maximum request to response latency (Second)
system.mem_ctrl.numReadWriteTurnArounds             0                       # Number of turnarounds from READ to WRITE (Count)
system.mem_ctrl.numWriteReadTurnArounds             0                       # Number of turnarounds from WRITE to READ (Count)
system.mem_ctrl.numStayReadState                  710                       # Number of times bus staying in READ state (Count)
system.mem_ctrl.numStayWriteState                   0                       # Number of times bus staying in WRITE state (Count)
system.mem_ctrl.readReqs                          351                       # Number of read requests accepted (Count)
system.mem_ctrl.writeReqs                           0                       # Number of write requests accepted (Count)
system.mem_ctrl.readBursts                        351                       # Number of controller read bursts, including those serviced by the write queue (Count)
system.mem_ctrl.writeBursts                         0                       # Number of controller write bursts, including those merged in the write queue (Count)
system.mem_ctrl.servicedByWrQ                       0                       # Number of controller read bursts serviced by the write queue (Count)
system.mem_ctrl.mergedWrBursts                      0                       # Number of controller write bursts merged with an existing one (Count)
system.mem_ctrl.neitherReadNorWriteReqs             0                       # Number of requests that are neither read nor write (Count)
system.mem_ctrl.avgRdQLen                        1.00                       # Average read queue length when enqueuing ((Count/Tick))
system.mem_ctrl.avgWrQLen                        0.00                       # Average write queue length when enqueuing ((Count/Tick))
system.mem_ctrl.numRdRetry                          0                       # Number of times read queue was full causing retry (Count)
system.mem_ctrl.numWrRetry                          0                       # Number of times write queue was full causing retry (Count)
system.mem_ctrl.readPktSize::0                      0                       # Read request sizes (log2) (Count)
system.mem_ctrl.readPktSize::1                      0                       # Read request sizes (log2) (Count)
system.mem_ctrl.readPktSize::2                      0                       # Read request sizes (log2) (Count)
system.mem_ctrl.readPktSize::3                      0                       # Read request sizes (log2) (Count)
system.mem_ctrl.readPktSize::4                      0                       # Read request sizes (log2) (Count)
system.mem_ctrl.readPktSize::5                      0                       # Read request sizes (log2) (Count)
system.mem_ctrl.readPktSize::6                    351                       # Read request sizes (log2) (Count)
system.mem_ctrl.writePktSize::0                     0                       # Write request sizes (log2) (Count)
system.mem_ctrl.writePktSize::1                     0                       # Write request sizes (log2) (Count)
system.mem_ctrl.writePktSize::2                     0                       # Write request sizes (log2) (Count)
system.mem_ctrl.writePktSize::3                     0                       # Write request sizes (log2) (Count)
system.mem_ctrl.writePktSize::4                     0                       # Write request sizes (log2) (Count)
system.mem_ctrl.writePktSize::5                     0                       # Write request sizes (log2) (Count)
system.mem_ctrl.writePktSize::6                     0                       # Write request sizes (log2) (Count)
system.mem_ctrl.rdQLenPdf::0                      351                       # What read queue length does an incoming req see (Count)
system.mem_ctrl.rdQLenPdf::1                        0                       # What read queue length does an incoming req see (Count)
system.mem_ctrl.rdQLenPdf::2                        0                       # What read queue length does an incoming req see (Count)
system.mem_ctrl.rdQLenPdf::3                        0                       # What read queue length does an incoming req see (Count)
system.mem_ctrl.rdQLenPdf::4                        0                       # What read queue length does an incoming req see (Count)
system.mem_ctrl.rdQLenPdf::5                        0                       # What read queue length does an incoming req see (Count)
system.mem_ctrl.rdQLenPdf::6                        0                       # What read queue length does an incoming req see (Count)
system.mem_ctrl.rdQLenPdf::7                        0                       # What read queue length does an incoming req see (Count)
system.mem_ctrl.rdQLenPdf::8                        0                       # What read queue length does an incoming req see (Count)
system.mem_ctrl.rdQLenPdf::9                        0                       # What read queue length does an incoming req see (Count)
system.mem_ctrl.rdQLenPdf::10                       0                       # What read queue length does an incoming req see (Count)
system.mem_ctrl.rdQLenPdf::11                       0                       # What read queue length does an incoming req see (Count)
system.mem_ctrl.rdQLenPdf::12                       0                       # What read queue length does an incoming req see (Count)
system.mem_ctrl.rdQLenPdf::13                       0                       # What read queue length does an incoming req see (Count)
system.mem_ctrl.rdQLenPdf::14                       0                       # What read queue length does an incoming req see (Count)
system.mem_ctrl.rdQLenPdf::15                       0                       # What read queue length does an incoming req see (Count)
system.mem_ctrl.rdQLenPdf::16                       0                       # What read queue length does an incoming req see (Count)
system.mem_ctrl.rdQLenPdf::17                       0                       # What read queue length does an incoming req see (Count)
system.mem_ctrl.rdQLenPdf::18                       0                       # What read queue length does an incoming req see (Count)
system.mem_ctrl.rdQLenPdf::19                       0                       # What read queue length does an incoming req see (Count)
system.mem_ctrl.rdQLenPdf::20                       0                       # What read queue length does an incoming req see (Count)
system.mem_ctrl.rdQLenPdf::21                       0                       # What read queue length does an incoming req see (Count)
system.mem_ctrl.rdQLenPdf::22                       0                       # What read queue length does an incoming req see (Count)
system.mem_ctrl.rdQLenPdf::23                       0                       # What read queue length does an incoming req see (Count)
system.mem_ctrl.rdQLenPdf::24                       0                       # What read queue length does an incoming req see (Count)
system.mem_ctrl.rdQLenPdf::25                       0                       # What read queue length does an incoming req see (Count)
system.mem_ctrl.rdQLenPdf::26                       0                       # What read queue length does an incoming req see (Count)
system.mem_ctrl.rdQLenPdf::27                       0                       # What read queue length does an incoming req see (Count)
system.mem_ctrl.rdQLenPdf::28                       0                       # What read queue length does an incoming req see (Count)
system.mem_ctrl.rdQLenPdf::29                       0                       # What read queue length does an incoming req see (Count)
system.mem_ctrl.rdQLenPdf::30                       0                       # What read queue length does an incoming req see (Count)
system.mem_ctrl.rdQLenPdf::31                       0                       # What read queue length does an incoming req see (Count)
system.mem_ctrl.rdQLenPdf::32                       0                       # What read queue length does an incoming req see (Count)
system.mem_ctrl.rdQLenPdf::33                       0                       # What read queue length does an incoming req see (Count)
system.mem_ctrl.rdQLenPdf::34                       0                       # What read queue length does an incoming req see (Count)
system.mem_ctrl.rdQLenPdf::35                       0                       # What read queue length does an incoming req see (Count)
system.mem_ctrl.rdQLenPdf::36                       0                       # What read queue length does an incoming req see (Count)
system.mem_ctrl.rdQLenPdf::37                       0                       # What read queue length does an incoming req see (Count)
system.mem_ctrl.rdQLenPdf::38                       0                       # What read queue length does an incoming req see (Count)
system.mem_ctrl.rdQLenPdf::39                       0                       # What read queue length does an incoming req see (Count)
system.mem_ctrl.rdQLenPdf::40                       0                       # What read queue length does an incoming req see (Count)
system.mem_ctrl.rdQLenPdf::41                       0                       # What read queue length does an incoming req see (Count)
system.mem_ctrl.rdQLenPdf::42                       0                       # What read queue length does an incoming req see (Count)
system.mem_ctrl.rdQLenPdf::43                       0                       # What read queue length does an incoming req see (Count)
system.mem_ctrl.rdQLenPdf::44                       0                       # What read queue length does an incoming req see (Count)
system.mem_ctrl.rdQLenPdf::45                       0                       # What read queue length does an incoming req see (Count)
system.mem_ctrl.rdQLenPdf::46                       0                       # What read queue length does an incoming req see (Count)
system.mem_ctrl.rdQLenPdf::47                       0                       # What read queue length does an incoming req see (Count)
system.mem_ctrl.rdQLenPdf::48                       0                       # What read queue length does an incoming req see (Count)
system.mem_ctrl.rdQLenPdf::49                       0                       # What read queue length does an incoming req see (Count)
[...]
system.mem_ctrl.dram.perBankRdBursts::4            14                       # Per bank write bursts (Count)
system.mem_ctrl.dram.perBankRdBursts::5            25                       # Per bank write bursts (Count)
system.mem_ctrl.dram.perBankRdBursts::6            34                       # Per bank write bursts (Count)
system.mem_ctrl.dram.perBankRdBursts::7             0                       # Per bank write bursts (Count)
system.mem_ctrl.dram.perBankRdBursts::8             4                       # Per bank write bursts (Count)
system.mem_ctrl.dram.perBankRdBursts::9             5                       # Per bank write bursts (Count)
system.mem_ctrl.dram.perBankRdBursts::10            2                       # Per bank write bursts (Count)
system.mem_ctrl.dram.perBankRdBursts::11            0                       # Per bank write bursts (Count)
system.mem_ctrl.dram.perBankRdBursts::12            0                       # Per bank write bursts (Count)
system.mem_ctrl.dram.perBankRdBursts::13            3                       # Per bank write bursts (Count)
system.mem_ctrl.dram.perBankRdBursts::14            0                       # Per bank write bursts (Count)
system.mem_ctrl.dram.perBankRdBursts::15            6                       # Per bank write bursts (Count)
system.mem_ctrl.dram.perBankRdBursts::16           17                       # Per bank write bursts (Count)
system.mem_ctrl.dram.perBankRdBursts::17           19                       # Per bank write bursts (Count)
system.mem_ctrl.dram.perBankRdBursts::18            0                       # Per bank write bursts (Count)
system.mem_ctrl.dram.perBankRdBursts::19            0                       # Per bank write bursts (Count)
system.mem_ctrl.dram.perBankRdBursts::20            0                       # Per bank write bursts (Count)
system.mem_ctrl.dram.perBankRdBursts::21            6                       # Per bank write bursts (Count)
system.mem_ctrl.dram.perBankRdBursts::22            0                       # Per bank write bursts (Count)
system.mem_ctrl.dram.perBankRdBursts::23            9                       # Per bank write bursts (Count)
system.mem_ctrl.dram.perBankRdBursts::24            0                       # Per bank write bursts (Count)
system.mem_ctrl.dram.perBankRdBursts::25            1                       # Per bank write bursts (Count)
system.mem_ctrl.dram.perBankRdBursts::26           23                       # Per bank write bursts (Count)
system.mem_ctrl.dram.perBankRdBursts::27           43                       # Per bank write bursts (Count)
system.mem_ctrl.dram.perBankRdBursts::28            8                       # Per bank write bursts (Count)
system.mem_ctrl.dram.perBankRdBursts::29            2                       # Per bank write bursts (Count)
system.mem_ctrl.dram.perBankRdBursts::30            0                       # Per bank write bursts (Count)
system.mem_ctrl.dram.perBankRdBursts::31            0                       # Per bank write bursts (Count)
system.mem_ctrl.dram.perBankWrBursts::0             0                       # Per bank write bursts (Count)
system.mem_ctrl.dram.perBankWrBursts::1             0                       # Per bank write bursts (Count)
system.mem_ctrl.dram.perBankWrBursts::2             0                       # Per bank write bursts (Count)
system.mem_ctrl.dram.perBankWrBursts::3             0                       # Per bank write bursts (Count)
system.mem_ctrl.dram.perBankWrBursts::4             0                       # Per bank write bursts (Count)
system.mem_ctrl.dram.perBankWrBursts::5             0                       # Per bank write bursts (Count)
system.mem_ctrl.dram.perBankWrBursts::6             0                       # Per bank write bursts (Count)
system.mem_ctrl.dram.perBankWrBursts::7             0                       # Per bank write bursts (Count)
system.mem_ctrl.dram.perBankWrBursts::8             0                       # Per bank write bursts (Count)
system.mem_ctrl.dram.perBankWrBursts::9             0                       # Per bank write bursts (Count)
system.mem_ctrl.dram.perBankWrBursts::10            0                       # Per bank write bursts (Count)
system.mem_ctrl.dram.perBankWrBursts::11            0                       # Per bank write bursts (Count)
system.mem_ctrl.dram.perBankWrBursts::12            0                       # Per bank write bursts (Count)
system.mem_ctrl.dram.perBankWrBursts::13            0                       # Per bank write bursts (Count)
system.mem_ctrl.dram.perBankWrBursts::14            0                       # Per bank write bursts (Count)
system.mem_ctrl.dram.perBankWrBursts::15            0                       # Per bank write bursts (Count)
system.mem_ctrl.dram.perBankWrBursts::16            0                       # Per bank write bursts (Count)
system.mem_ctrl.dram.perBankWrBursts::17            0                       # Per bank write bursts (Count)
system.mem_ctrl.dram.perBankWrBursts::18            0                       # Per bank write bursts (Count)
system.mem_ctrl.dram.perBankWrBursts::19            0                       # Per bank write bursts (Count)
system.mem_ctrl.dram.perBankWrBursts::20            0                       # Per bank write bursts (Count)
system.mem_ctrl.dram.perBankWrBursts::21            0                       # Per bank write bursts (Count)
system.mem_ctrl.dram.perBankWrBursts::22            0                       # Per bank write bursts (Count)
system.mem_ctrl.dram.perBankWrBursts::23            0                       # Per bank write bursts (Count)
system.mem_ctrl.dram.perBankWrBursts::24            0                       # Per bank write bursts (Count)
system.mem_ctrl.dram.perBankWrBursts::25            0                       # Per bank write bursts (Count)
system.mem_ctrl.dram.perBankWrBursts::26            0                       # Per bank write bursts (Count)
system.mem_ctrl.dram.perBankWrBursts::27            0                       # Per bank write bursts (Count)
system.mem_ctrl.dram.perBankWrBursts::28            0                       # Per bank write bursts (Count)
system.mem_ctrl.dram.perBankWrBursts::29            0                       # Per bank write bursts (Count)
system.mem_ctrl.dram.perBankWrBursts::30            0                       # Per bank write bursts (Count)
system.mem_ctrl.dram.perBankWrBursts::31            0                       # Per bank write bursts (Count)
system.mem_ctrl.dram.totQLat                  2038440                       # Total ticks spent queuing (Tick)
system.mem_ctrl.dram.totBusLat                1169532                       # Total ticks spent in databus transfers (Tick)
system.mem_ctrl.dram.totMemAccLat             8178132                       # Total ticks spent from burst creation until serviced by the DRAM (Tick)
system.mem_ctrl.dram.avgQLat                  5807.52                       # Average queueing delay per DRAM burst ((Tick/Count))
system.mem_ctrl.dram.avgBusLat                3332.00                       # Average bus latency per DRAM burst ((Tick/Count))
system.mem_ctrl.dram.avgMemAccLat            23299.52                       # Average memory access latency per DRAM burst ((Tick/Count))
system.mem_ctrl.dram.readRowHits                  287                       # Number of row buffer hits during reads (Count)
system.mem_ctrl.dram.writeRowHits                   0                       # Number of row buffer hits during writes (Count)
system.mem_ctrl.dram.readRowHitRate             81.77                       # Row buffer hit rate for reads (Ratio)
system.mem_ctrl.dram.writeRowHitRate              nan                       # Row buffer hit rate for writes (Ratio)
system.mem_ctrl.dram.bytesPerActivate::samples           54                       # Bytes accessed per row activation (Byte)
system.mem_ctrl.dram.bytesPerActivate::mean   367.407407                       # Bytes accessed per row activation (Byte)
system.mem_ctrl.dram.bytesPerActivate::gmean   242.479324                       # Bytes accessed per row activation (Byte)
system.mem_ctrl.dram.bytesPerActivate::stdev   319.923960                       # Bytes accessed per row activation (Byte)
system.mem_ctrl.dram.bytesPerActivate::0-127           13     24.07%     24.07% # Bytes accessed per row activation (Byte)
system.mem_ctrl.dram.bytesPerActivate::128-255           10     18.52%     42.59% # Bytes accessed per row activation (Byte)
system.mem_ctrl.dram.bytesPerActivate::256-383           11     20.37%     62.96% # Bytes accessed per row activation (Byte)
system.mem_ctrl.dram.bytesPerActivate::384-511            4      7.41%     70.37% # Bytes accessed per row activation (Byte)
system.mem_ctrl.dram.bytesPerActivate::512-639            5      9.26%     79.63% # Bytes accessed per row activation (Byte)
system.mem_ctrl.dram.bytesPerActivate::640-767            2      3.70%     83.33% # Bytes accessed per row activation (Byte)
system.mem_ctrl.dram.bytesPerActivate::768-895            2      3.70%     87.04% # Bytes accessed per row activation (Byte)
system.mem_ctrl.dram.bytesPerActivate::896-1023            1      1.85%     88.89% # Bytes accessed per row activation (Byte)
system.mem_ctrl.dram.bytesPerActivate::1024-1151            6     11.11%    100.00% # Bytes accessed per row activation (Byte)
system.mem_ctrl.dram.bytesPerActivate::total           54                       # Bytes accessed per row activation (Byte)
system.mem_ctrl.dram.bytesRead                  22464                       # Total bytes read (Byte)
system.mem_ctrl.dram.bytesWritten                   0                       # Total bytes written (Byte)
system.mem_ctrl.dram.avgRdBW               582.617942                       # Average DRAM read bandwidth in MiBytes/s ((Byte/Second))
system.mem_ctrl.dram.avgWrBW                        0                       # Average DRAM write bandwidth in MiBytes/s ((Byte/Second))
system.mem_ctrl.dram.peakBW                  19207.00                       # Theoretical peak bandwidth in MiByte/s ((Byte/Second))
system.mem_ctrl.dram.busUtil                     3.03                       # Data bus utilization in percentage (Ratio)
system.mem_ctrl.dram.busUtilRead                 3.03                       # Data bus utilization in percentage for reads (Ratio)
system.mem_ctrl.dram.busUtilWrite                0.00                       # Data bus utilization in percentage for writes (Ratio)
system.mem_ctrl.dram.pageHitRate                81.77                       # Row buffer hit rate, read and write combined (Ratio)
system.mem_ctrl.dram.power_state.pwrStateResidencyTicks::UNDEFINED     38557000                       # Cumulative time (in ticks) in various power states (Tick)
system.mem_ctrl.dram.rank0.actEnergy     109156.320000                       # Energy for activate commands per rank (pJ) (Joule)
system.mem_ctrl.dram.rank0.preEnergy     128536.564800                       # Energy for precharge commands per rank (pJ) (Joule)
system.mem_ctrl.dram.rank0.readEnergy    938008.646400                       # Energy for read commands per rank (pJ) (Joule)
system.mem_ctrl.dram.rank0.writeEnergy              0                       # Energy for write commands per rank (pJ) (Joule)
system.mem_ctrl.dram.rank0.refreshEnergy 5541510.508800                       # Energy for refresh commands per rank (pJ) (Joule)
system.mem_ctrl.dram.rank0.actBackEnergy 31266928.224000                       # Energy for active background per rank (pJ) (Joule)
system.mem_ctrl.dram.rank0.preBackEnergy 1145749.516800                       # Energy for precharge background per rank (pJ) (Joule)
system.mem_ctrl.dram.rank0.actPowerDownEnergy            0                       # Energy for active power-down per rank (pJ) (Joule)
system.mem_ctrl.dram.rank0.prePowerDownEnergy            0                       # Energy for precharge power-down per rank (pJ) (Joule)
system.mem_ctrl.dram.rank0.selfRefreshEnergy            0                       # Energy for self refresh per rank (pJ) (Joule)
system.mem_ctrl.dram.rank0.totalEnergy   39129889.780800                       # Total energy per rank (pJ) (Joule)
system.mem_ctrl.dram.rank0.averagePower   1014.858256                       # Core power per rank (mW) (Watt)
system.mem_ctrl.dram.rank0.totalIdleTime            0                       # Total Idle time Per DRAM Rank (Tick)
system.mem_ctrl.dram.rank0.pwrStateTime::IDLE      1630320                       # Time in different power states (Tick)
system.mem_ctrl.dram.rank0.pwrStateTime::REF      1400000                       # Time in different power states (Tick)
system.mem_ctrl.dram.rank0.pwrStateTime::SREF            0                       # Time in different power states (Tick)
system.mem_ctrl.dram.rank0.pwrStateTime::PRE_PDN            0                       # Time in different power states (Tick)
system.mem_ctrl.dram.rank0.pwrStateTime::ACT     35526680                       # Time in different power states (Tick)
system.mem_ctrl.dram.rank0.pwrStateTime::ACT_PDN            0                       # Time in different power states (Tick)
system.mem_ctrl.dram.rank1.actEnergy     90443.808000                       # Energy for activate commands per rank (pJ) (Joule)
system.mem_ctrl.dram.rank1.preEnergy     95365.838400                       # Energy for precharge commands per rank (pJ) (Joule)
system.mem_ctrl.dram.rank1.readEnergy    538408.550400                       # Energy for read commands per rank (pJ) (Joule)
system.mem_ctrl.dram.rank1.writeEnergy              0                       # Energy for write commands per rank (pJ) (Joule)
system.mem_ctrl.dram.rank1.refreshEnergy 5541510.508800                       # Energy for refresh commands per rank (pJ) (Joule)
system.mem_ctrl.dram.rank1.actBackEnergy 30034085.558400                       # Energy for active background per rank (pJ) (Joule)
system.mem_ctrl.dram.rank1.preBackEnergy 2093018.457600                       # Energy for precharge background per rank (pJ) (Joule)
system.mem_ctrl.dram.rank1.actPowerDownEnergy            0                       # Energy for active power-down per rank (pJ) (Joule)
system.mem_ctrl.dram.rank1.prePowerDownEnergy            0                       # Energy for precharge power-down per rank (pJ) (Joule)
system.mem_ctrl.dram.rank1.selfRefreshEnergy            0                       # Energy for self refresh per rank (pJ) (Joule)
system.mem_ctrl.dram.rank1.totalEnergy   38392832.721600                       # Total energy per rank (pJ) (Joule)
system.mem_ctrl.dram.rank1.averagePower    995.742219                       # Core power per rank (mW) (Watt)
system.mem_ctrl.dram.rank1.totalIdleTime            0                       # Total Idle time Per DRAM Rank (Tick)
system.mem_ctrl.dram.rank1.pwrStateTime::IDLE      3094480                       # Time in different power states (Tick)
system.mem_ctrl.dram.rank1.pwrStateTime::REF      1400000                       # Time in different power states (Tick)
system.mem_ctrl.dram.rank1.pwrStateTime::SREF            0                       # Time in different power states (Tick)
system.mem_ctrl.dram.rank1.pwrStateTime::PRE_PDN            0                       # Time in different power states (Tick)
system.mem_ctrl.dram.rank1.pwrStateTime::ACT     34062520                       # Time in different power states (Tick)
system.mem_ctrl.dram.rank1.pwrStateTime::ACT_PDN            0                       # Time in different power states (Tick)
system.mem_ctrl.power_state.pwrStateResidencyTicks::UNDEFINED     38557000                       # Cumulative time (in ticks) in various power states (Tick)
system.membus.transDist::ReadResp                 308                       # Transaction distribution (Count)
system.membus.transDist::ReadExReq                 43                       # Transaction distribution (Count)
system.membus.transDist::ReadExResp                43                       # Transaction distribution (Count)
system.membus.transDist::ReadSharedReq            308                       # Transaction distribution (Count)
system.membus.pktCount_system.l2cache.mem_side_port::system.mem_ctrl.port          702                       # Packet count per connected requestor and responder (Count)
system.membus.pktCount::total                     702                       # Packet count per connected requestor and responder (Count)
system.membus.pktSize_system.l2cache.mem_side_port::system.mem_ctrl.port        22464                       # Cumulative packet size per connected requestor and responder (Byte)
system.membus.pktSize::total                    22464                       # Cumulative packet size per connected requestor and responder (Byte)
system.membus.snoops                                0                       # Total snoops (Count)
system.membus.snoopTraffic                          0                       # Total snoop traffic (Byte)
system.membus.snoopFanout::samples                351                       # Request fanout histogram (Count)
system.membus.snoopFanout::mean                     0                       # Request fanout histogram (Count)
system.membus.snoopFanout::stdev                    0                       # Request fanout histogram (Count)
system.membus.snoopFanout::underflows               0      0.00%      0.00% # Request fanout histogram (Count)
system.membus.snoopFanout::0                      351    100.00%    100.00% # Request fanout histogram (Count)
system.membus.snoopFanout::1                        0      0.00%    100.00% # Request fanout histogram (Count)
system.membus.snoopFanout::overflows                0      0.00%    100.00% # Request fanout histogram (Count)
system.membus.snoopFanout::min_value                0                       # Request fanout histogram (Count)
system.membus.snoopFanout::max_value                0                       # Request fanout histogram (Count)
system.membus.snoopFanout::total                  351                       # Request fanout histogram (Count)
system.membus.power_state.pwrStateResidencyTicks::UNDEFINED     38557000                       # Cumulative time (in ticks) in various power states (Tick)
system.membus.reqLayer0.occupancy              175500                       # Layer occupancy (ticks) (Tick)
system.membus.reqLayer0.utilization               0.0                       # Layer utilization (Ratio)
system.membus.respLayer0.occupancy             901368                       # Layer occupancy (ticks) (Tick)
system.membus.respLayer0.utilization              0.0                       # Layer utilization (Ratio)
system.membus.snoop_filter.totRequests            351                       # Total number of requests made to the snoop filter. (Count)
system.membus.snoop_filter.hitSingleRequests            0                       # Number of requests hitting in the snoop filter with a single holder of the requested data. (Count)
system.membus.snoop_filter.hitMultiRequests            0                       # Number of requests hitting in the snoop filter with multiple (>1) holders of the requested data. (Count)
system.membus.snoop_filter.totSnoops                0                       # Total number of snoops made to the snoop filter. (Count)
system.membus.snoop_filter.hitSingleSnoops            0                       # Number of snoops hitting in the snoop filter with a single holder of the requested data. (Count)
system.membus.snoop_filter.hitMultiSnoops            0                       # Number of snoops hitting in the snoop filter with multiple (>1) holders of the requested data. (Count)
system.workload.inst.arm                            0                       # number of arm instructions executed (Count)
system.workload.inst.quiesce                        0                       # number of quiesce instructions executed (Count)

---------- End Simulation Statistics   ----------
