
---------- Begin Simulation Statistics ----------
simSeconds                                   0.003838                       # Number of seconds simulated (Second)
simTicks                                   3838218500                       # Number of ticks simulated (Tick)
finalTick                                  3838218500                       # Number of ticks from beginning of simulation (restored from checkpoints and never reset) (Tick)
simFreq                                  1000000000000                       # The number of ticks per simulated second ((Tick/Second))
hostSeconds                                     30.07                       # Real time elapsed on the host (Second)
hostTickRate                                127629978                       # The number of ticks simulated per host second (ticks/s) ((Tick/Second))
hostMemory                                    2270872                       # Number of bytes of host memory used (Byte)
simInsts                                     10000005                       # Number of instructions simulated (Count)
simOps                                       11441045                       # Number of ops (including micro ops) simulated (Count)
hostInstRate                                   332523                       # Simulator instruction rate (inst/s) ((Count/Second))
hostOpRate                                     380441                       # Simulator op (including micro ops) rate (op/s) ((Count/Second))
system.clk_domain.clock                           500                       # Clock period in ticks (Tick)
system.clk_domain.voltage_domain.voltage            1                       # Voltage in Volts (Volt)
system.cpu.numCycles                          7676438                       # Number of cpu cycles simulated (Cycle)
system.cpu.numWorkItemsStarted                      0                       # Number of work items this cpu started (Count)
system.cpu.numWorkItemsCompleted                    0                       # Number of work items this cpu completed (Count)
system.cpu.instsAdded                        16623137                       # Number of instructions added to the IQ (excludes non-spec) (Count)
system.cpu.nonSpecInstsAdded                     1448                       # Number of non-speculative instructions added to the IQ (Count)
system.cpu.instsIssued                       14490310                       # Number of instructions issued (Count)
system.cpu.squashedInstsIssued                  31515                       # Number of squashed instructions issued (Count)
system.cpu.squashedInstsExamined              5183533                       # Number of squashed instructions iterated over during squash; mainly for profiling (Count)
system.cpu.squashedOperandsExamined          12651398                       # Number of squashed operands that are examined and possibly removed from graph (Count)
system.cpu.squashedNonSpecRemoved                 652                       # Number of squashed non-spec instructions that were removed (Count)
system.cpu.numIssuedDist::samples             7590340                       # Number of insts issued each cycle (Count)
system.cpu.numIssuedDist::mean               1.909046                       # Number of insts issued each cycle (Count)
system.cpu.numIssuedDist::stdev              1.942366                       # Number of insts issued each cycle (Count)
system.cpu.numIssuedDist::underflows                0      0.00%      0.00% # Number of insts issued each cycle (Count)
system.cpu.numIssuedDist::0                   2490861     32.82%     32.82% # Number of insts issued each cycle (Count)
system.cpu.numIssuedDist::1                   1367404     18.02%     50.83% # Number of insts issued each cycle (Count)
system.cpu.numIssuedDist::2                   1249153     16.46%     67.29% # Number of insts issued each cycle (Count)
system.cpu.numIssuedDist::3                    922104     12.15%     79.44% # Number of insts issued each cycle (Count)
system.cpu.numIssuedDist::4                    659575      8.69%     88.13% # Number of insts issued each cycle (Count)
system.cpu.numIssuedDist::5                    455567      6.00%     94.13% # Number of insts issued each cycle (Count)
system.cpu.numIssuedDist::6                    259816      3.42%     97.55% # Number of insts issued each cycle (Count)
system.cpu.numIssuedDist::7                    103623      1.37%     98.92% # Number of insts issued each cycle (Count)
system.cpu.numIssuedDist::8                     82237      1.08%    100.00% # Number of insts issued each cycle (Count)
system.cpu.numIssuedDist::overflows                 0      0.00%    100.00% # Number of insts issued each cycle (Count)
system.cpu.numIssuedDist::min_value                 0                       # Number of insts issued each cycle (Count)
system.cpu.numIssuedDist::max_value                 8                       # Number of insts issued each cycle (Count)
system.cpu.numIssuedDist::total               7590340                       # Number of insts issued each cycle (Count)
system.cpu.statFuBusy::No_OpClass                   0      0.00%      0.00% # attempts to use FU when none available (Count)
system.cpu.statFuBusy::IntAlu                   22123     11.70%     11.70% # attempts to use FU when none available (Count)
system.cpu.statFuBusy::IntMult                      0      0.00%     11.70% # attempts to use FU when none available (Count)
system.cpu.statFuBusy::IntDiv                       0      0.00%     11.70% # attempts to use FU when none available (Count)
system.cpu.statFuBusy::FloatAdd                     0      0.00%     11.70% # attempts to use FU when none available (Count)
system.cpu.statFuBusy::FloatCmp                     0      0.00%     11.70% # attempts to use FU when none available (Count)
system.cpu.statFuBusy::FloatCvt                     0      0.00%     11.70% # attempts to use FU when none available (Count)
system.cpu.statFuBusy::FloatMult                    0      0.00%     11.70% # attempts to use FU when none available (Count)
system.cpu.statFuBusy::FloatMultAcc                 0      0.00%     11.70% # attempts to use FU when none available (Count)
system.cpu.statFuBusy::FloatDiv                     0      0.00%     11.70% # attempts to use FU when none available (Count)
system.cpu.statFuBusy::FloatMisc                    0      0.00%     11.70% # attempts to use FU when none available (Count)
system.cpu.statFuBusy::FloatSqrt                    0      0.00%     11.70% # attempts to use FU when none available (Count)
system.cpu.statFuBusy::SimdAdd                      0      0.00%     11.70% # attempts to use FU when none available (Count)
system.cpu.statFuBusy::SimdAddAcc                   0      0.00%     11.70% # attempts to use FU when none available (Count)
system.cpu.statFuBusy::SimdAlu                      0      0.00%     11.70% # attempts to use FU when none available (Count)
system.cpu.statFuBusy::SimdCmp                      0      0.00%     11.70% # attempts to use FU when none available (Count)
system.cpu.statFuBusy::SimdCvt                      0      0.00%     11.70% # attempts to use FU when none available (Count)
system.cpu.statFuBusy::SimdMisc                     0      0.00%     11.70% # attempts to use FU when none available (Count)
system.cpu.statFuBusy::SimdMult                     0      0.00%     11.70% # attempts to use FU when none available (Count)
system.cpu.statFuBusy::SimdMultAcc                  0      0.00%     11.70% # attempts to use FU when none available (Count)
system.cpu.statFuBusy::SimdShift                    0      0.00%     11.70% # attempts to use FU when none available (Count)
system.cpu.statFuBusy::SimdShiftAcc                 0      0.00%     11.70% # attempts to use FU when none available (Count)
system.cpu.statFuBusy::SimdDiv                      0      0.00%     11.70% # attempts to use FU when none available (Count)
system.cpu.statFuBusy::SimdSqrt                     0      0.00%     11.70% # attempts to use FU when none available (Count)
system.cpu.statFuBusy::SimdFloatAdd                 0      0.00%     11.70% # attempts to use FU when none available (Count)
system.cpu.statFuBusy::SimdFloatAlu                 0      0.00%     11.70% # attempts to use FU when none available (Count)
system.cpu.statFuBusy::SimdFloatCmp                 0      0.00%     11.70% # attempts to use FU when none available (Count)
system.cpu.statFuBusy::SimdFloatCvt                 0      0.00%     11.70% # attempts to use FU when none available (Count)
system.cpu.statFuBusy::SimdFloatDiv                 0      0.00%     11.70% # attempts to use FU when none available (Count)
system.cpu.statFuBusy::SimdFloatMisc                0      0.00%     11.70% # attempts to use FU when none available (Count)
system.cpu.statFuBusy::SimdFloatMult                0      0.00%     11.70% # attempts to use FU when none available (Count)
system.cpu.statFuBusy::SimdFloatMultAcc             0      0.00%     11.70% # attempts to use FU when none available (Count)
system.cpu.statFuBusy::SimdFloatSqrt                0      0.00%     11.70% # attempts to use FU when none available (Count)
system.cpu.statFuBusy::SimdReduceAdd                0      0.00%     11.70% # attempts to use FU when none available (Count)
system.cpu.statFuBusy::SimdReduceAlu                0      0.00%     11.70% # attempts to use FU when none available (Count)
system.cpu.statFuBusy::SimdReduceCmp                0      0.00%     11.70% # attempts to use FU when none available (Count)
system.cpu.statFuBusy::SimdFloatReduceAdd            0      0.00%     11.70% # attempts to use FU when none available (Count)
system.cpu.statFuBusy::SimdFloatReduceCmp            0      0.00%     11.70% # attempts to use FU when none available (Count)
system.cpu.statFuBusy::SimdAes                      0      0.00%     11.70% # attempts to use FU when none available (Count)
system.cpu.statFuBusy::SimdAesMix                   0      0.00%     11.70% # attempts to use FU when none available (Count)
system.cpu.statFuBusy::SimdSha1Hash                 0      0.00%     11.70% # attempts to use FU when none available (Count)
system.cpu.statFuBusy::SimdSha1Hash2                0      0.00%     11.70% # attempts to use FU when none available (Count)
system.cpu.statFuBusy::SimdSha256Hash               0      0.00%     11.70% # attempts to use FU when none available (Count)
system.cpu.statFuBusy::SimdSha256Hash2              0      0.00%     11.70% # attempts to use FU when none available (Count)
system.cpu.statFuBusy::SimdShaSigma2                0      0.00%     11.70% # attempts to use FU when none available (Count)
system.cpu.statFuBusy::SimdShaSigma3                0      0.00%     11.70% # attempts to use FU when none available (Count)
system.cpu.statFuBusy::SimdPredAlu                  0      0.00%     11.70% # attempts to use FU when none available (Count)
system.cpu.statFuBusy::MemRead                  94082     49.74%     61.44% # attempts to use FU when none available (Count)
system.cpu.statFuBusy::MemWrite                 72926     38.56%    100.00% # attempts to use FU when none available (Count)
system.cpu.statFuBusy::FloatMemRead                 0      0.00%    100.00% # attempts to use FU when none available (Count)
system.cpu.statFuBusy::FloatMemWrite                0      0.00%    100.00% # attempts to use FU when none available (Count)
system.cpu.statFuBusy::IprAccess                    0      0.00%    100.00% # attempts to use FU when none available (Count)
system.cpu.statFuBusy::InstPrefetch                 0      0.00%    100.00% # attempts to use FU when none available (Count)
system.cpu.statIssuedInstType_0::No_OpClass          202      0.00%      0.00% # Number of instructions issued per FU type, per thread (Count)
system.cpu.statIssuedInstType_0::IntAlu       8922842     61.58%     61.58% # Number of instructions issued per FU type, per thread (Count)
system.cpu.statIssuedInstType_0::IntMult        49708      0.34%     61.92% # Number of instructions issued per FU type, per thread (Count)
system.cpu.statIssuedInstType_0::IntDiv             0      0.00%     61.92% # Number of instructions issued per FU type, per thread (Count)
system.cpu.statIssuedInstType_0::FloatAdd            0      0.00%     61.92% # Number of instructions issued per FU type, per thread (Count)
system.cpu.statIssuedInstType_0::FloatCmp            0      0.00%     61.92% # Number of instructions issued per FU type, per thread (Count)
system.cpu.statIssuedInstType_0::FloatCvt            0      0.00%     61.92% # Number of instructions issued per FU type, per thread (Count)
system.cpu.statIssuedInstType_0::FloatMult            0      0.00%     61.92% # Number of instructions issued per FU type, per thread (Count)
system.cpu.statIssuedInstType_0::FloatMultAcc            0      0.00%     61.92% # Number of instructions issued per FU type, per thread (Count)
system.cpu.statIssuedInstType_0::FloatDiv            0      0.00%     61.92% # Number of instructions issued per FU type, per thread (Count)
system.cpu.statIssuedInstType_0::FloatMisc            0      0.00%     61.92% # Number of instructions issued per FU type, per thread (Count)
system.cpu.statIssuedInstType_0::FloatSqrt            0      0.00%     61.92% # Number of instructions issued per FU type, per thread (Count)
system.cpu.statIssuedInstType_0::SimdAdd            0      0.00%     61.92% # Number of instructions issued per FU type, per thread (Count)
system.cpu.statIssuedInstType_0::SimdAddAcc            0      0.00%     61.92% # Number of instructions issued per FU type, per thread (Count)
system.cpu.statIssuedInstType_0::SimdAlu            0      0.00%     61.92% # Number of instructions issued per FU type, per thread (Count)
system.cpu.statIssuedInstType_0::SimdCmp            0      0.00%     61.92% # Number of instructions issued per FU type, per thread (Count)
system.cpu.statIssuedInstType_0::SimdCvt            0      0.00%     61.92% # Number of instructions issued per FU type, per thread (Count)
system.cpu.statIssuedInstType_0::SimdMisc            0      0.00%     61.92% # Number of instructions issued per FU type, per thread (Count)
system.cpu.statIssuedInstType_0::SimdMult            0      0.00%     61.92% # Number of instructions issued per FU type, per thread (Count)
system.cpu.statIssuedInstType_0::SimdMultAcc            0      0.00%     61.92% # Number of instructions issued per FU type, per thread (Count)
system.cpu.statIssuedInstType_0::SimdShift            0      0.00%     61.92% # Number of instructions issued per FU type, per thread (Count)
system.cpu.statIssuedInstType_0::SimdShiftAcc            0      0.00%     61.92% # Number of instructions issued per FU type, per thread (Count)
system.cpu.statIssuedInstType_0::SimdDiv            0      0.00%     61.92% # Number of instructions issued per FU type, per thread (Count)
system.cpu.statIssuedInstType_0::SimdSqrt            0      0.00%     61.92% # Number of instructions issued per FU type, per thread (Count)
system.cpu.statIssuedInstType_0::SimdFloatAdd            0      0.00%     61.92% # Number of instructions issued per FU type, per thread (Count)
system.cpu.statIssuedInstType_0::SimdFloatAlu            0      0.00%     61.92% # Number of instructions issued per FU type, per thread (Count)
system.cpu.statIssuedInstType_0::SimdFloatCmp            0      0.00%     61.92% # Number of instructions issued per FU type, per thread (Count)
system.cpu.statIssuedInstType_0::SimdFloatCvt            0      0.00%     61.92% # Number of instructions issued per FU type, per thread (Count)
system.cpu.statIssuedInstType_0::SimdFloatDiv            0      0.00%     61.92% # Number of instructions issued per FU type, per thread (Count)
system.cpu.statIssuedInstType_0::SimdFloatMisc            0      0.00%     61.92% # Number of instructions issued per FU type, per thread (Count)
system.cpu.statIssuedInstType_0::SimdFloatMult            0      0.00%     61.92% # Number of instructions issued per FU type, per thread (Count)
system.cpu.statIssuedInstType_0::SimdFloatMultAcc            0      0.00%     61.92% # Number of instructions issued per FU type, per thread (Count)
system.cpu.statIssuedInstType_0::SimdFloatSqrt            0      0.00%     61.92% # Number of instructions issued per FU type, per thread (Count)
system.cpu.statIssuedInstType_0::SimdReduceAdd            0      0.00%     61.92% # Number of instructions issued per FU type, per thread (Count)
system.cpu.statIssuedInstType_0::SimdReduceAlu            0      0.00%     61.92% # Number of instructions issued per FU type, per thread (Count)
system.cpu.statIssuedInstType_0::SimdReduceCmp            0      0.00%     61.92% # Number of instructions issued per FU type, per thread (Count)
system.cpu.statIssuedInstType_0::SimdFloatReduceAdd            0      0.00%     61.92% # Number of instructions issued per FU type, per thread (Count)
system.cpu.statIssuedInstType_0::SimdFloatReduceCmp            0      0.00%     61.92% # Number of instructions issued per FU type, per thread (Count)
system.cpu.statIssuedInstType_0::SimdAes            0      0.00%     61.92% # Number of instructions issued per FU type, per thread (Count)
system.cpu.statIssuedInstType_0::SimdAesMix            0      0.00%     61.92% # Number of instructions issued per FU type, per thread (Count)
system.cpu.statIssuedInstType_0::SimdSha1Hash            0      0.00%     61.92% # Number of instructions issued per FU type, per thread (Count)
system.cpu.statIssuedInstType_0::SimdSha1Hash2            0      0.00%     61.92% # Number of instructions issued per FU type, per thread (Count)
system.cpu.statIssuedInstType_0::SimdSha256Hash            0      0.00%     61.92% # Number of instructions issued per FU type, per thread (Count)
system.cpu.statIssuedInstType_0::SimdSha256Hash2            0      0.00%     61.92% # Number of instructions issued per FU type, per thread (Count)
system.cpu.statIssuedInstType_0::SimdShaSigma2            0      0.00%     61.92% # Number of instructions issued per FU type, per thread (Count)
system.cpu.statIssuedInstType_0::SimdShaSigma3            0      0.00%     61.92% # Number of instructions issued per FU type, per thread (Count)
system.cpu.statIssuedInstType_0::SimdPredAlu            0      0.00%     61.92% # Number of instructions issued per FU type, per thread (Count)
system.cpu.statIssuedInstType_0::MemRead      3452135     23.82%     85.75% # Number of instructions issued per FU type, per thread (Count)
system.cpu.statIssuedInstType_0::MemWrite      2065423     14.25%    100.00% # Number of instructions issued per FU type, per thread (Count)
system.cpu.statIssuedInstType_0::FloatMemRead            0      0.00%    100.00% # Number of instructions issued per FU type, per thread (Count)
system.cpu.statIssuedInstType_0::FloatMemWrite            0      0.00%    100.00% # Number of instructions issued per FU type, per thread (Count)
system.cpu.statIssuedInstType_0::IprAccess            0      0.00%    100.00% # Number of instructions issued per FU type, per thread (Count)
system.cpu.statIssuedInstType_0::InstPrefetch            0      0.00%    100.00% # Number of instructions issued per FU type, per thread (Count)
system.cpu.statIssuedInstType_0::total       14490310                       # Number of instructions issued per FU type, per thread (Count)
system.cpu.issueRate                         1.887635                       # Inst issue rate ((Count/Cycle))
system.cpu.fuBusy                              189131                       # FU busy when requested (Count)
system.cpu.fuBusyRate                        0.013052                       # FU busy rate (busy events/executed inst) ((Count/Count))
system.cpu.intInstQueueReads                 36791606                       # Number of integer instruction queue reads (Count)
system.cpu.intInstQueueWrites                21808702                       # Number of integer instruction queue writes (Count)
system.cpu.intInstQueueWakeupAccesses        13766892                       # Number of integer instruction queue wakeup accesses (Count)
system.cpu.fpInstQueueReads                         0                       # Number of floating instruction queue reads (Count)
system.cpu.fpInstQueueWrites                        0                       # Number of floating instruction queue writes (Count)
system.cpu.fpInstQueueWakeupAccesses                0                       # Number of floating instruction queue wakeup accesses (Count)
system.cpu.vecInstQueueReads                        0                       # Number of vector instruction queue reads (Count)
system.cpu.vecInstQueueWrites                       0                       # Number of vector instruction queue writes (Count)
system.cpu.vecInstQueueWakeupAccesses               0                       # Number of vector instruction queue wakeup accesses (Count)
system.cpu.intAluAccesses                    14679239                       # Number of integer alu accesses (Count)
system.cpu.fpAluAccesses                            0                       # Number of floating point alu accesses (Count)
system.cpu.vecAluAccesses                           0                       # Number of vector alu accesses (Count)
system.cpu.numInsts                          14165726                       # Number of executed instructions (Count)
system.cpu.numLoadInsts                       3311273                       # Number of load instructions executed (Count)
system.cpu.numSquashedInsts                    324584                       # Number of squashed instructions skipped in execute (Count)
system.cpu.numSwp                                   0                       # Number of swp insts executed (Count)
system.cpu.numNop                                   0                       # Number of nop insts executed (Count)
system.cpu.numRefs                            5315954                       # Number of memory reference insts executed (Count)
system.cpu.numBranches                        2255435                       # Number of branches executed (Count)
system.cpu.numStoreInsts                      2004681                       # Number of stores executed (Count)
system.cpu.numRate                           1.845351                       # Inst execution rate ((Count/Cycle))
system.cpu.timesIdled                            8484                       # Number of times that the entire CPU went into an idle state and unscheduled itself (Count)
system.cpu.idleCycles                           86098                       # Total number of cycles that the CPU has spent unscheduled due to idling (Cycle)
system.cpu.committedInsts                    10000005                       # Number of Instructions Simulated (Count)
system.cpu.committedOps                      11441045                       # Number of Ops (including micro ops) Simulated (Count)
system.cpu.cpi                               0.767643                       # CPI: Cycles Per Instruction ((Cycle/Count))
system.cpu.totalCpi                          0.767643                       # CPI: Total CPI of All Threads ((Cycle/Count))
system.cpu.ipc                               1.302688                       # IPC: Instructions Per Cycle ((Count/Cycle))
system.cpu.totalIpc                          1.302688                       # IPC: Total IPC of All Threads ((Count/Cycle))
system.cpu.intRegfileReads                   16060215                       # Number of integer regfile reads (Count)
system.cpu.intRegfileWrites                   8262779                       # Number of integer regfile writes (Count)
system.cpu.vecRegfileReads                         16                       # number of vector regfile reads (Count)
system.cpu.ccRegfileReads                    51291829                       # number of cc regfile reads (Count)
system.cpu.ccRegfileWrites                    6651397                       # number of cc regfile writes (Count)
system.cpu.miscRegfileReads                   4939033                       # number of misc regfile reads (Count)
system.cpu.miscRegfileWrites                     1545                       # number of misc regfile writes (Count)
system.cpu.MemDepUnit__0.insertedLoads        3725466                       # Number of loads inserted to the mem dependence unit. (Count)
system.cpu.MemDepUnit__0.insertedStores       2333104                       # Number of stores inserted to the mem dependence unit. (Count)
system.cpu.MemDepUnit__0.conflictingLoads       464969                       # Number of conflicting loads. (Count)
system.cpu.MemDepUnit__0.conflictingStores       429599                       # Number of conflicting stores. (Count)
system.cpu.MemDepUnit__1.insertedLoads              0                       # Number of loads inserted to the mem dependence unit. (Count)
system.cpu.MemDepUnit__1.insertedStores             0                       # Number of stores inserted to the mem dependence unit. (Count)
system.cpu.MemDepUnit__1.conflictingLoads            0                       # Number of conflicting loads. (Count)
system.cpu.MemDepUnit__1.conflictingStores            0                       # Number of conflicting stores. (Count)
system.cpu.MemDepUnit__2.insertedLoads              0                       # Number of loads inserted to the mem dependence unit. (Count)
system.cpu.MemDepUnit__2.insertedStores             0                       # Number of stores inserted to the mem dependence unit. (Count)
system.cpu.MemDepUnit__2.conflictingLoads            0                       # Number of conflicting loads. (Count)
system.cpu.MemDepUnit__2.conflictingStores            0                       # Number of conflicting stores. (Count)
system.cpu.MemDepUnit__3.insertedLoads              0                       # Number of loads inserted to the mem dependence unit. (Count)
system.cpu.MemDepUnit__3.insertedStores             0                       # Number of stores inserted to the mem dependence unit. (Count)
system.cpu.MemDepUnit__3.conflictingLoads            0                       # Number of conflicting loads. (Count)
system.cpu.MemDepUnit__3.conflictingStores            0                       # Number of conflicting stores. (Count)
system.cpu.branchPred.lookups                 3224824                       # Number of BP lookups (Count)
system.cpu.branchPred.condPredicted           2271099                       # Number of conditional branches predicted (Count)
system.cpu.branchPred.condIncorrect            222787                       # Number of conditional branches incorrect (Count)
system.cpu.branchPred.BTBLookups              1683220                       # Number of BTB lookups (Count)
system.cpu.branchPred.BTBHits                  983340                       # Number of BTB hits (Count)
system.cpu.branchPred.BTBHitRatio            0.584202                       # BTB Hit Ratio (Ratio)
system.cpu.branchPred.RASUsed                  367052                       # Number of times the RAS was used to get a target. (Count)
system.cpu.branchPred.RASIncorrect               7861                       # Number of incorrect RAS predictions. (Count)
system.cpu.branchPred.indirectLookups           87756                       # Number of indirect predictor lookups. (Count)
system.cpu.branchPred.indirectHits              46747                       # Number of indirect target hits. (Count)
system.cpu.branchPred.indirectMisses            41009                       # Number of indirect misses. (Count)
system.cpu.branchPred.indirectMispredicted         2155                       # Number of mispredicted indirect branches. (Count)
system.cpu.commit.commitSquashedInsts         5182285                       # The number of squashed insts skipped by commit (Count)
system.cpu.commit.commitNonSpecStalls             796                       # The number of times commit has been forced to stall to communicate backwards (Count)
system.cpu.commit.branchMispredicts            192469                       # The number of times a branch was mispredicted (Count)
system.cpu.commit.numCommittedDist::samples      6826147                       # Number of insts commited each cycle (Count)
system.cpu.commit.numCommittedDist::mean     1.676062                       # Number of insts commited each cycle (Count)
system.cpu.commit.numCommittedDist::stdev     2.347147                       # Number of insts commited each cycle (Count)
system.cpu.commit.numCommittedDist::underflows            0      0.00%      0.00% # Number of insts commited each cycle (Count)
system.cpu.commit.numCommittedDist::0         2801799     41.05%     41.05% # Number of insts commited each cycle (Count)
system.cpu.commit.numCommittedDist::1         1795607     26.30%     67.35% # Number of insts commited each cycle (Count)
system.cpu.commit.numCommittedDist::2          878933     12.88%     80.23% # Number of insts commited each cycle (Count)
system.cpu.commit.numCommittedDist::3          211798      3.10%     83.33% # Number of insts commited each cycle (Count)
system.cpu.commit.numCommittedDist::4          283984      4.16%     87.49% # Number of insts commited each cycle (Count)
system.cpu.commit.numCommittedDist::5          156600      2.29%     89.78% # Number of insts commited each cycle (Count)
system.cpu.commit.numCommittedDist::6           81384      1.19%     90.98% # Number of insts commited each cycle (Count)
system.cpu.commit.numCommittedDist::7           83398      1.22%     92.20% # Number of insts commited each cycle (Count)
system.cpu.commit.numCommittedDist::8          532644      7.80%    100.00% # Number of insts commited each cycle (Count)
system.cpu.commit.numCommittedDist::overflows            0      0.00%    100.00% # Number of insts commited each cycle (Count)
system.cpu.commit.numCommittedDist::min_value            0                       # Number of insts commited each cycle (Count)
system.cpu.commit.numCommittedDist::max_value            8                       # Number of insts commited each cycle (Count)
system.cpu.commit.numCommittedDist::total      6826147                       # Number of insts commited each cycle (Count)
system.cpu.commit.instsCommitted             10000005                       # Number of instructions committed (Count)
system.cpu.commit.opsCommitted               11441045                       # Number of ops (including micro ops) committed (Count)
system.cpu.commit.memRefs                     4051968                       # Number of memory references committed (Count)
system.cpu.commit.loads                       2486410                       # Number of loads committed (Count)
system.cpu.commit.amos                              0                       # Number of atomic instructions committed (Count)
system.cpu.commit.membars                         390                       # Number of memory barriers committed (Count)
system.cpu.commit.branches                    1853544                       # Number of branches committed (Count)
system.cpu.commit.vectorInstructions                0                       # Number of committed Vector instructions. (Count)
system.cpu.commit.floating                          0                       # Number of committed floating point instructions. (Count)
system.cpu.commit.integer                    10013739                       # Number of committed integer instructions. (Count)
system.cpu.commit.functionCalls                199147                       # Number of function calls committed. (Count)
system.cpu.commit.committedInstType_0::No_OpClass            0      0.00%      0.00% # Class of committed instruction (Count)
system.cpu.commit.committedInstType_0::IntAlu      7341683     64.17%     64.17% # Class of committed instruction (Count)
system.cpu.commit.committedInstType_0::IntMult        47394      0.41%     64.58% # Class of committed instruction (Count)
system.cpu.commit.committedInstType_0::IntDiv            0      0.00%     64.58% # Class of committed instruction (Count)
system.cpu.commit.committedInstType_0::FloatAdd            0      0.00%     64.58% # Class of committed instruction (Count)
system.cpu.commit.committedInstType_0::FloatCmp            0      0.00%     64.58% # Class of committed instruction (Count)
system.cpu.commit.committedInstType_0::FloatCvt            0      0.00%     64.58% # Class of committed instruction (Count)
system.cpu.commit.committedInstType_0::FloatMult            0      0.00%     64.58% # Class of committed instruction (Count)
system.cpu.commit.committedInstType_0::FloatMultAcc            0      0.00%     64.58% # Class of committed instruction (Count)
system.cpu.commit.committedInstType_0::FloatDiv            0      0.00%     64.58% # Class of committed instruction (Count)
system.cpu.commit.committedInstType_0::FloatMisc            0      0.00%     64.58% # Class of committed instruction (Count)
system.cpu.commit.committedInstType_0::FloatSqrt            0      0.00%     64.58% # Class of committed instruction (Count)
system.cpu.commit.committedInstType_0::SimdAdd            0      0.00%     64.58% # Class of committed instruction (Count)
system.cpu.commit.committedInstType_0::SimdAddAcc            0      0.00%     64.58% # Class of committed instruction (Count)
system.cpu.commit.committedInstType_0::SimdAlu            0      0.00%     64.58% # Class of committed instruction (Count)
system.cpu.commit.committedInstType_0::SimdCmp            0      0.00%     64.58% # Class of committed instruction (Count)
system.cpu.commit.committedInstType_0::SimdCvt            0      0.00%     64.58% # Class of committed instruction (Count)
system.cpu.commit.committedInstType_0::SimdMisc            0      0.00%     64.58% # Class of committed instruction (Count)
system.cpu.commit.committedInstType_0::SimdMult            0      0.00%     64.58% # Class of committed instruction (Count)
system.cpu.commit.committedInstType_0::SimdMultAcc            0      0.00%     64.58% # Class of committed instruction (Count)
system.cpu.commit.committedInstType_0::SimdShift            0      0.00%     64.58% # Class of committed instruction (Count)
system.cpu.commit.committedInstType_0::SimdShiftAcc            0      0.00%     64.58% # Class of committed instruction (Count)
system.cpu.commit.committedInstType_0::SimdDiv            0      0.00%     64.58% # Class of committed instruction (Count)
system.cpu.commit.committedInstType_0::SimdSqrt            0      0.00%     64.58% # Class of committed instruction (Count)
system.cpu.commit.committedInstType_0::SimdFloatAdd            0      0.00%     64.58% # Class of committed instruction (Count)
system.cpu.commit.committedInstType_0::SimdFloatAlu            0      0.00%     64.58% # Class of committed instruction (Count)
system.cpu.commit.committedInstType_0::SimdFloatCmp            0      0.00%     64.58% # Class of committed instruction (Count)
system.cpu.commit.committedInstType_0::SimdFloatCvt            0      0.00%     64.58% # Class of committed instruction (Count)
system.cpu.commit.committedInstType_0::SimdFloatDiv            0      0.00%     64.58% # Class of committed instruction (Count)
system.cpu.commit.committedInstType_0::SimdFloatMisc            0      0.00%     64.58% # Class of committed instruction (Count)
system.cpu.commit.committedInstType_0::SimdFloatMult            0      0.00%     64.58% # Class of committed instruction (Count)
system.cpu.commit.committedInstType_0::SimdFloatMultAcc            0      0.00%     64.58% # Class of committed instruction (Count)
system.cpu.commit.committedInstType_0::SimdFloatSqrt            0      0.00%     64.58% # Class of committed instruction (Count)
system.cpu.commit.committedInstType_0::SimdReduceAdd            0      0.00%     64.58% # Class of committed instruction (Count)
system.cpu.commit.committedInstType_0::SimdReduceAlu            0      0.00%     64.58% # Class of committed instruction (Count)
system.cpu.commit.committedInstType_0::SimdReduceCmp            0      0.00%     64.58% # Class of committed instruction (Count)
system.cpu.commit.committedInstType_0::SimdFloatReduceAdd            0      0.00%     64.58% # Class of committed instruction (Count)
system.cpu.commit.committedInstType_0::SimdFloatReduceCmp            0      0.00%     64.58% # Class of committed instruction (Count)
system.cpu.commit.committedInstType_0::SimdAes            0      0.00%     64.58% # Class of committed instruction (Count)
system.cpu.commit.committedInstType_0::SimdAesMix            0      0.00%     64.58% # Class of committed instruction (Count)
system.cpu.commit.committedInstType_0::SimdSha1Hash            0      0.00%     64.58% # Class of committed instruction (Count)
system.cpu.commit.committedInstType_0::SimdSha1Hash2            0      0.00%     64.58% # Class of committed instruction (Count)
system.cpu.commit.committedInstType_0::SimdSha256Hash            0      0.00%     64.58% # Class of committed instruction (Count)
system.cpu.commit.committedInstType_0::SimdSha256Hash2            0      0.00%     64.58% # Class of committed instruction (Count)
system.cpu.commit.committedInstType_0::SimdShaSigma2            0      0.00%     64.58% # Class of committed instruction (Count)
system.cpu.commit.committedInstType_0::SimdShaSigma3            0      0.00%     64.58% # Class of committed instruction (Count)
system.cpu.commit.committedInstType_0::SimdPredAlu            0      0.00%     64.58% # Class of committed instruction (Count)
system.cpu.commit.committedInstType_0::MemRead      2486410     21.73%     86.32% # Class of committed instruction (Count)
system.cpu.commit.committedInstType_0::MemWrite      1565558     13.68%    100.00% # Class of committed instruction (Count)
system.cpu.commit.committedInstType_0::FloatMemRead            0      0.00%    100.00% # Class of committed instruction (Count)
system.cpu.commit.committedInstType_0::FloatMemWrite            0      0.00%    100.00% # Class of committed instruction (Count)
system.cpu.commit.committedInstType_0::IprAccess            0      0.00%    100.00% # Class of committed instruction (Count)
system.cpu.commit.committedInstType_0::InstPrefetch            0      0.00%    100.00% # Class of committed instruction (Count)
system.cpu.commit.committedInstType_0::total     11441045                       # Class of committed instruction (Count)
system.cpu.commit.commitEligibleSamples        532644                       # number cycles where commit BW limit reached (Cycle)
system.cpu.dcache.demandHits::cpu.data        4269543                       # number of demand (read+write) hits (Count)
system.cpu.dcache.demandHits::total           4269543                       # number of demand (read+write) hits (Count)
system.cpu.dcache.overallHits::cpu.data       4269543                       # number of overall hits (Count)
system.cpu.dcache.overallHits::total          4269543                       # number of overall hits (Count)
system.cpu.dcache.demandMisses::cpu.data        25676                       # number of demand (read+write) misses (Count)
system.cpu.dcache.demandMisses::total           25676                       # number of demand (read+write) misses (Count)
system.cpu.dcache.overallMisses::cpu.data        25676                       # number of overall misses (Count)
system.cpu.dcache.overallMisses::total          25676                       # number of overall misses (Count)
system.cpu.dcache.demandMissLatency::cpu.data   1350612989                       # number of demand (read+write) miss ticks (Tick)
system.cpu.dcache.demandMissLatency::total   1350612989                       # number of demand (read+write) miss ticks (Tick)
system.cpu.dcache.overallMissLatency::cpu.data   1350612989                       # number of overall miss ticks (Tick)
system.cpu.dcache.overallMissLatency::total   1350612989                       # number of overall miss ticks (Tick)
system.cpu.dcache.demandAccesses::cpu.data      4295219                       # number of demand (read+write) accesses (Count)
system.cpu.dcache.demandAccesses::total       4295219                       # number of demand (read+write) accesses (Count)
system.cpu.dcache.overallAccesses::cpu.data      4295219                       # number of overall (read+write) accesses (Count)
system.cpu.dcache.overallAccesses::total      4295219                       # number of overall (read+write) accesses (Count)
system.cpu.dcache.demandMissRate::cpu.data     0.005978                       # miss rate for demand accesses (Ratio)
system.cpu.dcache.demandMissRate::total      0.005978                       # miss rate for demand accesses (Ratio)
system.cpu.dcache.overallMissRate::cpu.data     0.005978                       # miss rate for overall accesses (Ratio)
system.cpu.dcache.overallMissRate::total     0.005978                       # miss rate for overall accesses (Ratio)
system.cpu.dcache.demandAvgMissLatency::cpu.data 52602.157229                       # average overall miss latency in ticks ((Tick/Count))
system.cpu.dcache.demandAvgMissLatency::total 52602.157229                       # average overall miss latency in ticks ((Tick/Count))
system.cpu.dcache.overallAvgMissLatency::cpu.data 52602.157229                       # average overall miss latency ((Tick/Count))
system.cpu.dcache.overallAvgMissLatency::total 52602.157229                       # average overall miss latency ((Tick/Count))
system.cpu.dcache.blockedCycles::no_mshrs         1255                       # number of cycles access was blocked (Cycle)
system.cpu.dcache.blockedCycles::no_targets          424                       # number of cycles access was blocked (Cycle)
system.cpu.dcache.blockedCauses::no_mshrs           47                       # number of times access was blocked (Count)
system.cpu.dcache.blockedCauses::no_targets            6                       # number of times access was blocked (Count)
system.cpu.dcache.avgBlocked::no_mshrs      26.702128                       # average number of cycles each access was blocked ((Cycle/Count))
system.cpu.dcache.avgBlocked::no_targets    70.666667                       # average number of cycles each access was blocked ((Cycle/Count))
system.cpu.dcache.writebacks::writebacks         2304                       # number of writebacks (Count)
system.cpu.dcache.writebacks::total              2304                       # number of writebacks (Count)
system.cpu.dcache.demandMshrHits::cpu.data        21509                       # number of demand (read+write) MSHR hits (Count)
system.cpu.dcache.demandMshrHits::total         21509                       # number of demand (read+write) MSHR hits (Count)
system.cpu.dcache.overallMshrHits::cpu.data        21509                       # number of overall MSHR hits (Count)
system.cpu.dcache.overallMshrHits::total        21509                       # number of overall MSHR hits (Count)
system.cpu.dcache.demandMshrMisses::cpu.data         4167                       # number of demand (read+write) MSHR misses (Count)
system.cpu.dcache.demandMshrMisses::total         4167                       # number of demand (read+write) MSHR misses (Count)
system.cpu.dcache.overallMshrMisses::cpu.data         4167                       # number of overall MSHR misses (Count)
system.cpu.dcache.overallMshrMisses::total         4167                       # number of overall MSHR misses (Count)
system.cpu.dcache.demandMshrMissLatency::cpu.data    195119496                       # number of demand (read+write) MSHR miss ticks (Tick)
system.cpu.dcache.demandMshrMissLatency::total    195119496                       # number of demand (read+write) MSHR miss ticks (Tick)
system.cpu.dcache.overallMshrMissLatency::cpu.data    195119496                       # number of overall MSHR miss ticks (Tick)
system.cpu.dcache.overallMshrMissLatency::total    195119496                       # number of overall MSHR miss ticks (Tick)
system.cpu.dcache.demandMshrMissRate::cpu.data     0.000970                       # mshr miss ratio for demand accesses (Ratio)
system.cpu.dcache.demandMshrMissRate::total     0.000970                       # mshr miss ratio for demand accesses (Ratio)
system.cpu.dcache.overallMshrMissRate::cpu.data     0.000970                       # mshr miss ratio for overall accesses (Ratio)
system.cpu.dcache.overallMshrMissRate::total     0.000970                       # mshr miss ratio for overall accesses (Ratio)
system.cpu.dcache.demandAvgMshrMissLatency::cpu.data 46824.933045                       # average overall mshr miss latency ((Tick/Count))
system.cpu.dcache.demandAvgMshrMissLatency::total 46824.933045                       # average overall mshr miss latency ((Tick/Count))
system.cpu.dcache.overallAvgMshrMissLatency::cpu.data 46824.933045                       # average overall mshr miss latency ((Tick/Count))
system.cpu.dcache.overallAvgMshrMissLatency::total 46824.933045                       # average overall mshr miss latency ((Tick/Count))
system.cpu.dcache.replacements                   3645                       # number of replacements (Count)
system.cpu.dcache.LoadLockedReq.hits::cpu.data          386                       # number of LoadLockedReq hits (Count)
system.cpu.dcache.LoadLockedReq.hits::total          386                       # number of LoadLockedReq hits (Count)
system.cpu.dcache.LoadLockedReq.misses::cpu.data            6                       # number of LoadLockedReq misses (Count)
system.cpu.dcache.LoadLockedReq.misses::total            6                       # number of LoadLockedReq misses (Count)
system.cpu.dcache.LoadLockedReq.missLatency::cpu.data       301500                       # number of LoadLockedReq miss ticks (Tick)
system.cpu.dcache.LoadLockedReq.missLatency::total       301500                       # number of LoadLockedReq miss ticks (Tick)
system.cpu.dcache.LoadLockedReq.accesses::cpu.data          392                       # number of LoadLockedReq accesses(hits+misses) (Count)
system.cpu.dcache.LoadLockedReq.accesses::total          392                       # number of LoadLockedReq accesses(hits+misses) (Count)
system.cpu.dcache.LoadLockedReq.missRate::cpu.data     0.015306                       # miss rate for LoadLockedReq accesses (Ratio)
system.cpu.dcache.LoadLockedReq.missRate::total     0.015306                       # miss rate for LoadLockedReq accesses (Ratio)
system.cpu.dcache.LoadLockedReq.avgMissLatency::cpu.data        50250                       # average LoadLockedReq miss latency ((Tick/Count))
system.cpu.dcache.LoadLockedReq.avgMissLatency::total        50250                       # average LoadLockedReq miss latency ((Tick/Count))
system.cpu.dcache.LoadLockedReq.mshrHits::cpu.data            6                       # number of LoadLockedReq MSHR hits (Count)
system.cpu.dcache.LoadLockedReq.mshrHits::total            6                       # number of LoadLockedReq MSHR hits (Count)
system.cpu.dcache.ReadReq.hits::cpu.data      2755112                       # number of ReadReq hits (Count)
system.cpu.dcache.ReadReq.hits::total         2755112                       # number of ReadReq hits (Count)
system.cpu.dcache.ReadReq.misses::cpu.data         6488                       # number of ReadReq misses (Count)
system.cpu.dcache.ReadReq.misses::total          6488                       # number of ReadReq misses (Count)
system.cpu.dcache.ReadReq.missLatency::cpu.data    123760000                       # number of ReadReq miss ticks (Tick)
system.cpu.dcache.ReadReq.missLatency::total    123760000                       # number of ReadReq miss ticks (Tick)
system.cpu.dcache.ReadReq.accesses::cpu.data      2761600                       # number of ReadReq accesses(hits+misses) (Count)
system.cpu.dcache.ReadReq.accesses::total      2761600                       # number of ReadReq accesses(hits+misses) (Count)
system.cpu.dcache.ReadReq.missRate::cpu.data     0.002349                       # miss rate for ReadReq accesses (Ratio)
system.cpu.dcache.ReadReq.missRate::total     0.002349                       # miss rate for ReadReq accesses (Ratio)
system.cpu.dcache.ReadReq.avgMissLatency::cpu.data 19075.215783                       # average ReadReq miss latency ((Tick/Count))
system.cpu.dcache.ReadReq.avgMissLatency::total 19075.215783                       # average ReadReq miss latency ((Tick/Count))
system.cpu.dcache.ReadReq.mshrHits::cpu.data         4219                       # number of ReadReq MSHR hits (Count)
system.cpu.dcache.ReadReq.mshrHits::total         4219                       # number of ReadReq MSHR hits (Count)
system.cpu.dcache.ReadReq.mshrMisses::cpu.data         2269                       # number of ReadReq MSHR misses (Count)
system.cpu.dcache.ReadReq.mshrMisses::total         2269                       # number of ReadReq MSHR misses (Count)
system.cpu.dcache.ReadReq.mshrMissLatency::cpu.data     56554000                       # number of ReadReq MSHR miss ticks (Tick)
system.cpu.dcache.ReadReq.mshrMissLatency::total     56554000                       # number of ReadReq MSHR miss ticks (Tick)
system.cpu.dcache.ReadReq.mshrMissRate::cpu.data     0.000822                       # mshr miss rate for ReadReq accesses (Ratio)
system.cpu.dcache.ReadReq.mshrMissRate::total     0.000822                       # mshr miss rate for ReadReq accesses (Ratio)
system.cpu.dcache.ReadReq.avgMshrMissLatency::cpu.data 24924.636404                       # average ReadReq mshr miss latency ((Tick/Count))
system.cpu.dcache.ReadReq.avgMshrMissLatency::total 24924.636404                       # average ReadReq mshr miss latency ((Tick/Count))
system.cpu.dcache.StoreCondReq.hits::cpu.data          386                       # number of StoreCondReq hits (Count)
system.cpu.dcache.StoreCondReq.hits::total          386                       # number of StoreCondReq hits (Count)
system.cpu.dcache.StoreCondReq.accesses::cpu.data          386                       # number of StoreCondReq accesses(hits+misses) (Count)
system.cpu.dcache.StoreCondReq.accesses::total          386                       # number of StoreCondReq accesses(hits+misses) (Count)
system.cpu.dcache.WriteReq.hits::cpu.data      1514431                       # number of WriteReq hits (Count)
system.cpu.dcache.WriteReq.hits::total        1514431                       # number of WriteReq hits (Count)
system.cpu.dcache.WriteReq.misses::cpu.data        19188                       # number of WriteReq misses (Count)
system.cpu.dcache.WriteReq.misses::total        19188                       # number of WriteReq misses (Count)
system.cpu.dcache.WriteReq.missLatency::cpu.data   1226852989                       # number of WriteReq miss ticks (Tick)
system.cpu.dcache.WriteReq.missLatency::total   1226852989                       # number of WriteReq miss ticks (Tick)
system.cpu.dcache.WriteReq.accesses::cpu.data      1533619                       # number of WriteReq accesses(hits+misses) (Count)
system.cpu.dcache.WriteReq.accesses::total      1533619                       # number of WriteReq accesses(hits+misses) (Count)
system.cpu.dcache.WriteReq.missRate::cpu.data     0.012512                       # miss rate for WriteReq accesses (Ratio)
system.cpu.dcache.WriteReq.missRate::total     0.012512                       # miss rate for WriteReq accesses (Ratio)
system.cpu.dcache.WriteReq.avgMissLatency::cpu.data 63938.554774                       # average WriteReq miss latency ((Tick/Count))
system.cpu.dcache.WriteReq.avgMissLatency::total 63938.554774                       # average WriteReq miss latency ((Tick/Count))
system.cpu.dcache.WriteReq.mshrHits::cpu.data        17290                       # number of WriteReq MSHR hits (Count)
system.cpu.dcache.WriteReq.mshrHits::total        17290                       # number of WriteReq MSHR hits (Count)
system.cpu.dcache.WriteReq.mshrMisses::cpu.data         1898                       # number of WriteReq MSHR misses (Count)
system.cpu.dcache.WriteReq.mshrMisses::total         1898                       # number of WriteReq MSHR misses (Count)
system.cpu.dcache.WriteReq.mshrMissLatency::cpu.data    138565496                       # number of WriteReq MSHR miss ticks (Tick)
system.cpu.dcache.WriteReq.mshrMissLatency::total    138565496                       # number of WriteReq MSHR miss ticks (Tick)
system.cpu.dcache.WriteReq.mshrMissRate::cpu.data     0.001238                       # mshr miss rate for WriteReq accesses (Ratio)
system.cpu.dcache.WriteReq.mshrMissRate::total     0.001238                       # mshr miss rate for WriteReq accesses (Ratio)
system.cpu.dcache.WriteReq.avgMshrMissLatency::cpu.data 73006.056902                       # average WriteReq mshr miss latency ((Tick/Count))
system.cpu.dcache.WriteReq.avgMshrMissLatency::total 73006.056902                       # average WriteReq mshr miss latency ((Tick/Count))
system.cpu.dcache.power_state.pwrStateResidencyTicks::UNDEFINED   3838218500                       # Cumulative time (in ticks) in various power states (Tick)
system.cpu.dcache.tags.tagsInUse           496.481707                       # Average ticks per tags in use ((Tick/Count))
system.cpu.dcache.tags.totalRefs              4274510                       # Total number of references to valid blocks. (Count)
system.cpu.dcache.tags.sampledRefs               4157                       # Sample count of references to valid blocks. (Count)
system.cpu.dcache.tags.avgRefs            1028.267982                       # Average number of references to valid blocks. ((Count/Count))
system.cpu.dcache.tags.warmupTick              148500                       # The tick when the warmup percentage was hit. (Tick)
system.cpu.dcache.tags.occupancies::cpu.data   496.481707                       # Average occupied blocks per tick, per requestor ((Count/Tick))
system.cpu.dcache.tags.avgOccs::cpu.data     0.969691                       # Average percentage of cache occupancy ((Ratio/Tick))
system.cpu.dcache.tags.avgOccs::total        0.969691                       # Average percentage of cache occupancy ((Ratio/Tick))
system.cpu.dcache.tags.occupanciesTaskId::1024          512                       # Occupied blocks per task id (Count)
system.cpu.dcache.tags.ageTaskId_1024::0            5                       # Occupied blocks per task id, per block age (Count)
system.cpu.dcache.tags.ageTaskId_1024::1           43                       # Occupied blocks per task id, per block age (Count)
system.cpu.dcache.tags.ageTaskId_1024::2          464                       # Occupied blocks per task id, per block age (Count)
system.cpu.dcache.tags.ratioOccsTaskId::1024            1                       # Ratio of occupied blocks and all blocks, per task id (Ratio)
system.cpu.dcache.tags.tagAccesses            8596151                       # Number of tag accesses (Count)
system.cpu.dcache.tags.dataAccesses           8596151                       # Number of data accesses (Count)
system.cpu.dcache.tags.power_state.pwrStateResidencyTicks::UNDEFINED   3838218500                       # Cumulative time (in ticks) in various power states (Tick)
system.cpu.decode.idleCycles                  2999564                       # Number of cycles decode is idle (Cycle)
system.cpu.decode.blockedCycles               1195302                       # Number of cycles decode is blocked (Cycle)
system.cpu.decode.runCycles                   2935849                       # Number of cycles decode is running (Cycle)
system.cpu.decode.unblockCycles                266658                       # Number of cycles decode is unblocking (Cycle)
system.cpu.decode.squashCycles                 192967                       # Number of cycles decode is squashing (Cycle)
system.cpu.decode.branchResolved               964266                       # Number of times decode resolved a branch (Count)
system.cpu.decode.branchMispred                 30981                       # Number of times decode detected a branch misprediction (Count)
system.cpu.decode.decodedInsts               18430055                       # Number of instructions handled by decode (Count)
system.cpu.decode.squashedInsts                  8624                       # Number of squashed instructions handled by decode (Count)
system.cpu.fetch.icacheStallCycles            3600611                       # Number of cycles fetch is stalled on an Icache miss (Cycle)
system.cpu.fetch.insts                       16877909                       # Number of instructions fetch has processed (Count)
system.cpu.fetch.branches                     3224824                       # Number of branches that fetch encountered (Count)
system.cpu.fetch.predictedBranches            1397139                       # Number of branches that fetch has predicted taken (Count)
system.cpu.fetch.cycles                       3764880                       # Number of cycles fetch has run and was not squashing or blocked (Cycle)
system.cpu.fetch.squashCycles                  446582                       # Number of cycles fetch has spent squashing (Cycle)
system.cpu.fetch.miscStallCycles                  312                       # Number of cycles fetch has spent waiting on interrupts, or bad addresses, or out of MSHRs (Cycle)
system.cpu.fetch.pendingTrapStallCycles          1209                       # Number of stall cycles due to pending traps (Cycle)
system.cpu.fetch.icacheWaitRetryStallCycles           37                       # Number of stall cycles due to full MSHR (Cycle)
system.cpu.fetch.cacheLines                   2594955                       # Number of cache lines fetched (Count)
system.cpu.fetch.icacheSquashes                105549                       # Number of outstanding Icache misses that were squashed (Count)
system.cpu.fetch.nisnDist::samples            7590340                       # Number of instructions fetched each cycle (Total) (Count)
system.cpu.fetch.nisnDist::mean              2.584788                       # Number of instructions fetched each cycle (Total) (Count)
system.cpu.fetch.nisnDist::stdev             3.297141                       # Number of instructions fetched each cycle (Total) (Count)
system.cpu.fetch.nisnDist::underflows               0      0.00%      0.00% # Number of instructions fetched each cycle (Total) (Count)
system.cpu.fetch.nisnDist::0                  4025984     53.04%     53.04% # Number of instructions fetched each cycle (Total) (Count)
system.cpu.fetch.nisnDist::1                   354971      4.68%     57.72% # Number of instructions fetched each cycle (Total) (Count)
system.cpu.fetch.nisnDist::2                   468914      6.18%     63.90% # Number of instructions fetched each cycle (Total) (Count)
system.cpu.fetch.nisnDist::3                   168566      2.22%     66.12% # Number of instructions fetched each cycle (Total) (Count)
system.cpu.fetch.nisnDist::4                   345877      4.56%     70.67% # Number of instructions fetched each cycle (Total) (Count)
system.cpu.fetch.nisnDist::5                   280656      3.70%     74.37% # Number of instructions fetched each cycle (Total) (Count)
system.cpu.fetch.nisnDist::6                   179163      2.36%     76.73% # Number of instructions fetched each cycle (Total) (Count)
system.cpu.fetch.nisnDist::7                   170514      2.25%     78.98% # Number of instructions fetched each cycle (Total) (Count)
system.cpu.fetch.nisnDist::8                  1595695     21.02%    100.00% # Number of instructions fetched each cycle (Total) (Count)
system.cpu.fetch.nisnDist::overflows                0      0.00%    100.00% # Number of instructions fetched each cycle (Total) (Count)
system.cpu.fetch.nisnDist::min_value                0                       # Number of instructions fetched each cycle (Total) (Count)
system.cpu.fetch.nisnDist::max_value                8                       # Number of instructions fetched each cycle (Total) (Count)
system.cpu.fetch.nisnDist::total              7590340                       # Number of instructions fetched each cycle (Total) (Count)
system.cpu.fetch.branchRate                  0.420094                       # Number of branch fetches per cycle (Ratio)
system.cpu.fetch.rate                        2.198664                       # Number of inst fetches per cycle ((Count/Cycle))
system.cpu.icache.demandHits::cpu.inst        2529561                       # number of demand (read+write) hits (Count)
system.cpu.icache.demandHits::total           2529561                       # number of demand (read+write) hits (Count)
system.cpu.icache.overallHits::cpu.inst       2529561                       # number of overall hits (Count)
system.cpu.icache.overallHits::total          2529561                       # number of overall hits (Count)
system.cpu.icache.demandMisses::cpu.inst        65394                       # number of demand (read+write) misses (Count)
system.cpu.icache.demandMisses::total           65394                       # number of demand (read+write) misses (Count)
system.cpu.icache.overallMisses::cpu.inst        65394                       # number of overall misses (Count)
system.cpu.icache.overallMisses::total          65394                       # number of overall misses (Count)
system.cpu.icache.demandMissLatency::cpu.inst    904339000                       # number of demand (read+write) miss ticks (Tick)
system.cpu.icache.demandMissLatency::total    904339000                       # number of demand (read+write) miss ticks (Tick)
system.cpu.icache.overallMissLatency::cpu.inst    904339000                       # number of overall miss ticks (Tick)
system.cpu.icache.overallMissLatency::total    904339000                       # number of overall miss ticks (Tick)
system.cpu.icache.demandAccesses::cpu.inst      2594955                       # number of demand (read+write) accesses (Count)
system.cpu.icache.demandAccesses::total       2594955                       # number of demand (read+write) accesses (Count)
system.cpu.icache.overallAccesses::cpu.inst      2594955                       # number of overall (read+write) accesses (Count)
system.cpu.icache.overallAccesses::total      2594955                       # number of overall (read+write) accesses (Count)
system.cpu.icache.demandMissRate::cpu.inst     0.025200                       # miss rate for demand accesses (Ratio)
system.cpu.icache.demandMissRate::total      0.025200                       # miss rate for demand accesses (Ratio)
system.cpu.icache.overallMissRate::cpu.inst     0.025200                       # miss rate for overall accesses (Ratio)
system.cpu.icache.overallMissRate::total     0.025200                       # miss rate for overall accesses (Ratio)
system.cpu.icache.demandAvgMissLatency::cpu.inst 13829.082179                       # average overall miss latency in ticks ((Tick/Count))
system.cpu.icache.demandAvgMissLatency::total 13829.082179                       # average overall miss latency in ticks ((Tick/Count))
system.cpu.icache.overallAvgMissLatency::cpu.inst 13829.082179                       # average overall miss latency ((Tick/Count))
system.cpu.icache.overallAvgMissLatency::total 13829.082179                       # average overall miss latency ((Tick/Count))
system.cpu.icache.blockedCycles::no_mshrs         1010                       # number of cycles access was blocked (Cycle)
system.cpu.icache.blockedCycles::no_targets            0                       # number of cycles access was blocked (Cycle)
system.cpu.icache.blockedCauses::no_mshrs           14                       # number of times access was blocked (Count)
system.cpu.icache.blockedCauses::no_targets            0                       # number of times access was blocked (Count)
system.cpu.icache.avgBlocked::no_mshrs      72.142857                       # average number of cycles each access was blocked ((Cycle/Count))
system.cpu.icache.avgBlocked::no_targets          nan                       # average number of cycles each access was blocked ((Cycle/Count))
system.cpu.icache.demandMshrHits::cpu.inst         5931                       # number of demand (read+write) MSHR hits (Count)
system.cpu.icache.demandMshrHits::total          5931                       # number of demand (read+write) MSHR hits (Count)
system.cpu.icache.overallMshrHits::cpu.inst         5931                       # number of overall MSHR hits (Count)
system.cpu.icache.overallMshrHits::total         5931                       # number of overall MSHR hits (Count)
system.cpu.icache.demandMshrMisses::cpu.inst        59463                       # number of demand (read+write) MSHR misses (Count)
system.cpu.icache.demandMshrMisses::total        59463                       # number of demand (read+write) MSHR misses (Count)
system.cpu.icache.overallMshrMisses::cpu.inst        59463                       # number of overall MSHR misses (Count)
system.cpu.icache.overallMshrMisses::total        59463                       # number of overall MSHR misses (Count)
system.cpu.icache.demandMshrMissLatency::cpu.inst    794993000                       # number of demand (read+write) MSHR miss ticks (Tick)
system.cpu.icache.demandMshrMissLatency::total    794993000                       # number of demand (read+write) MSHR miss ticks (Tick)
system.cpu.icache.overallMshrMissLatency::cpu.inst    794993000                       # number of overall MSHR miss ticks (Tick)
system.cpu.icache.overallMshrMissLatency::total    794993000                       # number of overall MSHR miss ticks (Tick)
system.cpu.icache.demandMshrMissRate::cpu.inst     0.022915                       # mshr miss ratio for demand accesses (Ratio)
system.cpu.icache.demandMshrMissRate::total     0.022915                       # mshr miss ratio for demand accesses (Ratio)
system.cpu.icache.overallMshrMissRate::cpu.inst     0.022915                       # mshr miss ratio for overall accesses (Ratio)
system.cpu.icache.overallMshrMissRate::total     0.022915                       # mshr miss ratio for overall accesses (Ratio)
system.cpu.icache.demandAvgMshrMissLatency::cpu.inst 13369.540723                       # average overall mshr miss latency ((Tick/Count))
system.cpu.icache.demandAvgMshrMissLatency::total 13369.540723                       # average overall mshr miss latency ((Tick/Count))
system.cpu.icache.overallAvgMshrMissLatency::cpu.inst 13369.540723                       # average overall mshr miss latency ((Tick/Count))
system.cpu.icache.overallAvgMshrMissLatency::total 13369.540723                       # average overall mshr miss latency ((Tick/Count))
system.cpu.icache.replacements                  58950                       # number of replacements (Count)
system.cpu.icache.ReadReq.hits::cpu.inst      2529561                       # number of ReadReq hits (Count)
system.cpu.icache.ReadReq.hits::total         2529561                       # number of ReadReq hits (Count)
system.cpu.icache.ReadReq.misses::cpu.inst        65394                       # number of ReadReq misses (Count)
system.cpu.icache.ReadReq.misses::total         65394                       # number of ReadReq misses (Count)
system.cpu.icache.ReadReq.missLatency::cpu.inst    904339000                       # number of ReadReq miss ticks (Tick)
system.cpu.icache.ReadReq.missLatency::total    904339000                       # number of ReadReq miss ticks (Tick)
system.cpu.icache.ReadReq.accesses::cpu.inst      2594955                       # number of ReadReq accesses(hits+misses) (Count)
system.cpu.icache.ReadReq.accesses::total      2594955                       # number of ReadReq accesses(hits+misses) (Count)
system.cpu.icache.ReadReq.missRate::cpu.inst     0.025200                       # miss rate for ReadReq accesses (Ratio)
system.cpu.icache.ReadReq.missRate::total     0.025200                       # miss rate for ReadReq accesses (Ratio)
system.cpu.icache.ReadReq.avgMissLatency::cpu.inst 13829.082179                       # average ReadReq miss latency ((Tick/Count))
system.cpu.icache.ReadReq.avgMissLatency::total 13829.082179                       # average ReadReq miss latency ((Tick/Count))
system.cpu.icache.ReadReq.mshrHits::cpu.inst         5931                       # number of ReadReq MSHR hits (Count)
system.cpu.icache.ReadReq.mshrHits::total         5931                       # number of ReadReq MSHR hits (Count)
system.cpu.icache.ReadReq.mshrMisses::cpu.inst        59463                       # number of ReadReq MSHR misses (Count)
system.cpu.icache.ReadReq.mshrMisses::total        59463                       # number of ReadReq MSHR misses (Count)
system.cpu.icache.ReadReq.mshrMissLatency::cpu.inst    794993000                       # number of ReadReq MSHR miss ticks (Tick)
system.cpu.icache.ReadReq.mshrMissLatency::total    794993000                       # number of ReadReq MSHR miss ticks (Tick)
system.cpu.icache.ReadReq.mshrMissRate::cpu.inst     0.022915                       # mshr miss rate for ReadReq accesses (Ratio)
system.cpu.icache.ReadReq.mshrMissRate::total     0.022915                       # mshr miss rate for ReadReq accesses (Ratio)
system.cpu.icache.ReadReq.avgMshrMissLatency::cpu.inst 13369.540723                       # average ReadReq mshr miss latency ((Tick/Count))
system.cpu.icache.ReadReq.avgMshrMissLatency::total 13369.540723                       # average ReadReq mshr miss latency ((Tick/Count))
system.cpu.icache.power_state.pwrStateResidencyTicks::UNDEFINED   3838218500                       # Cumulative time (in ticks) in various power states (Tick)
system.cpu.icache.tags.tagsInUse           501.247984                       # Average ticks per tags in use ((Tick/Count))
system.cpu.icache.tags.totalRefs              2589024                       # Total number of references to valid blocks. (Count)
system.cpu.icache.tags.sampledRefs              59463                       # Sample count of references to valid blocks. (Count)
system.cpu.icache.tags.avgRefs              43.540084                       # Average number of references to valid blocks. ((Count/Count))
system.cpu.icache.tags.warmupTick               81500                       # The tick when the warmup percentage was hit. (Tick)
system.cpu.icache.tags.occupancies::cpu.inst   501.247984                       # Average occupied blocks per tick, per requestor ((Count/Tick))
system.cpu.icache.tags.avgOccs::cpu.inst     0.979000                       # Average percentage of cache occupancy ((Ratio/Tick))
system.cpu.icache.tags.avgOccs::total        0.979000                       # Average percentage of cache occupancy ((Ratio/Tick))
system.cpu.icache.tags.occupanciesTaskId::1024          504                       # Occupied blocks per task id (Count)
system.cpu.icache.tags.ageTaskId_1024::0           14                       # Occupied blocks per task id, per block age (Count)
system.cpu.icache.tags.ageTaskId_1024::2           26                       # Occupied blocks per task id, per block age (Count)
system.cpu.icache.tags.ageTaskId_1024::3          464                       # Occupied blocks per task id, per block age (Count)
system.cpu.icache.tags.ratioOccsTaskId::1024     0.984375                       # Ratio of occupied blocks and all blocks, per task id (Ratio)
system.cpu.icache.tags.tagAccesses            5249373                       # Number of tag accesses (Count)
system.cpu.icache.tags.dataAccesses           5249373                       # Number of data accesses (Count)
system.cpu.icache.tags.power_state.pwrStateResidencyTicks::UNDEFINED   3838218500                       # Cumulative time (in ticks) in various power states (Tick)
system.cpu.iew.idleCycles                           0                       # Number of cycles IEW is idle (Cycle)
system.cpu.iew.squashCycles                    192967                       # Number of cycles IEW is squashing (Cycle)
system.cpu.iew.blockCycles                     579824                       # Number of cycles IEW is blocking (Cycle)
system.cpu.iew.unblockCycles                    21806                       # Number of cycles IEW is unblocking (Cycle)
system.cpu.iew.dispatchedInsts               16624585                       # Number of instructions dispatched to IQ (Count)
system.cpu.iew.dispSquashedInsts                45208                       # Number of squashed instructions skipped by dispatch (Count)
system.cpu.iew.dispLoadInsts                  3725466                       # Number of dispatched load instructions (Count)
system.cpu.iew.dispStoreInsts                 2333104                       # Number of dispatched store instructions (Count)
system.cpu.iew.dispNonSpecInsts                  1058                       # Number of dispatched non-speculative instructions (Count)
system.cpu.iew.iqFullEvents                       582                       # Number of times the IQ has become full, causing a stall (Count)
system.cpu.iew.lsqFullEvents                    21122                       # Number of times the LSQ has become full, causing a stall (Count)
system.cpu.iew.memOrderViolationEvents            599                       # Number of memory order violations (Count)
system.cpu.iew.predictedTakenIncorrect          83498                       # Number of branches that were predicted taken incorrectly (Count)
system.cpu.iew.predictedNotTakenIncorrect       131008                       # Number of branches that were predicted not taken incorrectly (Count)
system.cpu.iew.branchMispredicts               214506                       # Number of branch mispredicts detected at execute (Count)
system.cpu.iew.instsToCommit                 13837790                       # Cumulative count of insts sent to commit (Count)
system.cpu.iew.writebackCount                13766892                       # Cumulative count of insts written-back (Count)
system.cpu.iew.producerInst                   7950839                       # Number of instructions producing a value (Count)
system.cpu.iew.consumerInst                  13895466                       # Number of instructions consuming a value (Count)
system.cpu.iew.wbRate                        1.793396                       # Insts written-back per cycle ((Count/Cycle))
system.cpu.iew.wbFanout                      0.572189                       # Average fanout of values written-back ((Count/Count))
system.cpu.lsq0.forwLoads                      314988                       # Number of loads that had data forwarded from stores (Count)
system.cpu.lsq0.squashedLoads                 1239054                       # Number of loads squashed (Count)
system.cpu.lsq0.ignoredResponses                 3678                       # Number of memory responses ignored because the instruction is squashed (Count)
system.cpu.lsq0.memOrderViolation                 599                       # Number of memory ordering violations (Count)
system.cpu.lsq0.squashedStores                 767545                       # Number of stores squashed (Count)
system.cpu.lsq0.rescheduledLoads               195495                       # Number of loads that were rescheduled (Count)
system.cpu.lsq0.blockedByCache                     38                       # Number of times an access to memory failed due to the cache being blocked (Count)
system.cpu.lsq0.loadToUse::samples            2486408                       # Distribution of cycle latency between the first time a load is issued and its completion (Unspecified)
system.cpu.lsq0.loadToUse::mean              3.634402                       # Distribution of cycle latency between the first time a load is issued and its completion (Unspecified)
system.cpu.lsq0.loadToUse::stdev             4.084434                       # Distribution of cycle latency between the first time a load is issued and its completion (Unspecified)
system.cpu.lsq0.loadToUse::0-9                2436193     97.98%     97.98% # Distribution of cycle latency between the first time a load is issued and its completion (Unspecified)
system.cpu.lsq0.loadToUse::10-19                25931      1.04%     99.02% # Distribution of cycle latency between the first time a load is issued and its completion (Unspecified)
system.cpu.lsq0.loadToUse::20-29                22648      0.91%     99.93% # Distribution of cycle latency between the first time a load is issued and its completion (Unspecified)
system.cpu.lsq0.loadToUse::30-39                  599      0.02%     99.96% # Distribution of cycle latency between the first time a load is issued and its completion (Unspecified)
system.cpu.lsq0.loadToUse::40-49                  223      0.01%     99.97% # Distribution of cycle latency between the first time a load is issued and its completion (Unspecified)
system.cpu.lsq0.loadToUse::50-59                  115      0.00%     99.97% # Distribution of cycle latency between the first time a load is issued and its completion (Unspecified)
system.cpu.lsq0.loadToUse::60-69                   27      0.00%     99.97% # Distribution of cycle latency between the first time a load is issued and its completion (Unspecified)
system.cpu.lsq0.loadToUse::70-79                    9      0.00%     99.97% # Distribution of cycle latency between the first time a load is issued and its completion (Unspecified)
system.cpu.lsq0.loadToUse::80-89                   33      0.00%     99.97% # Distribution of cycle latency between the first time a load is issued and its completion (Unspecified)
system.cpu.lsq0.loadToUse::90-99                   10      0.00%     99.98% # Distribution of cycle latency between the first time a load is issued and its completion (Unspecified)
system.cpu.lsq0.loadToUse::100-109                  6      0.00%     99.98% # Distribution of cycle latency between the first time a load is issued and its completion (Unspecified)
system.cpu.lsq0.loadToUse::110-119                 15      0.00%     99.98% # Distribution of cycle latency between the first time a load is issued and its completion (Unspecified)
system.cpu.lsq0.loadToUse::120-129                 32      0.00%     99.98% # Distribution of cycle latency between the first time a load is issued and its completion (Unspecified)
system.cpu.lsq0.loadToUse::130-139                245      0.01%     99.99% # Distribution of cycle latency between the first time a load is issued and its completion (Unspecified)
system.cpu.lsq0.loadToUse::140-149                 52      0.00%     99.99% # Distribution of cycle latency between the first time a load is issued and its completion (Unspecified)
system.cpu.lsq0.loadToUse::150-159                 29      0.00%     99.99% # Distribution of cycle latency between the first time a load is issued and its completion (Unspecified)
system.cpu.lsq0.loadToUse::160-169                122      0.00%    100.00% # Distribution of cycle latency between the first time a load is issued and its completion (Unspecified)
system.cpu.lsq0.loadToUse::170-179                 18      0.00%    100.00% # Distribution of cycle latency between the first time a load is issued and its completion (Unspecified)
system.cpu.lsq0.loadToUse::180-189                 42      0.00%    100.00% # Distribution of cycle latency between the first time a load is issued and its completion (Unspecified)
system.cpu.lsq0.loadToUse::190-199                 21      0.00%    100.00% # Distribution of cycle latency between the first time a load is issued and its completion (Unspecified)
system.cpu.lsq0.loadToUse::200-209                  1      0.00%    100.00% # Distribution of cycle latency between the first time a load is issued and its completion (Unspecified)
[...]
system.mem_ctrl.dram.perBankRdBursts::6           138                       # Per bank write bursts (Count)
system.mem_ctrl.dram.perBankRdBursts::7           161                       # Per bank write bursts (Count)
system.mem_ctrl.dram.perBankRdBursts::8           185                       # Per bank write bursts (Count)
system.mem_ctrl.dram.perBankRdBursts::9           189                       # Per bank write bursts (Count)
system.mem_ctrl.dram.perBankRdBursts::10          184                       # Per bank write bursts (Count)
system.mem_ctrl.dram.perBankRdBursts::11           85                       # Per bank write bursts (Count)
system.mem_ctrl.dram.perBankRdBursts::12          145                       # Per bank write bursts (Count)
system.mem_ctrl.dram.perBankRdBursts::13          131                       # Per bank write bursts (Count)
system.mem_ctrl.dram.perBankRdBursts::14          151                       # Per bank write bursts (Count)
system.mem_ctrl.dram.perBankRdBursts::15          171                       # Per bank write bursts (Count)
system.mem_ctrl.dram.perBankRdBursts::16           30                       # Per bank write bursts (Count)
system.mem_ctrl.dram.perBankRdBursts::17           34                       # Per bank write bursts (Count)
system.mem_ctrl.dram.perBankRdBursts::18           69                       # Per bank write bursts (Count)
system.mem_ctrl.dram.perBankRdBursts::19           18                       # Per bank write bursts (Count)
system.mem_ctrl.dram.perBankRdBursts::20           17                       # Per bank write bursts (Count)
system.mem_ctrl.dram.perBankRdBursts::21           68                       # Per bank write bursts (Count)
system.mem_ctrl.dram.perBankRdBursts::22           34                       # Per bank write bursts (Count)
system.mem_ctrl.dram.perBankRdBursts::23           18                       # Per bank write bursts (Count)
system.mem_ctrl.dram.perBankRdBursts::24            4                       # Per bank write bursts (Count)
system.mem_ctrl.dram.perBankRdBursts::25           79                       # Per bank write bursts (Count)
system.mem_ctrl.dram.perBankRdBursts::26           90                       # Per bank write bursts (Count)
system.mem_ctrl.dram.perBankRdBursts::27           21                       # Per bank write bursts (Count)
system.mem_ctrl.dram.perBankRdBursts::28           32                       # Per bank write bursts (Count)
system.mem_ctrl.dram.perBankRdBursts::29           80                       # Per bank write bursts (Count)
system.mem_ctrl.dram.perBankRdBursts::30           94                       # Per bank write bursts (Count)
system.mem_ctrl.dram.perBankRdBursts::31          124                       # Per bank write bursts (Count)
system.mem_ctrl.dram.perBankWrBursts::0             0                       # Per bank write bursts (Count)
system.mem_ctrl.dram.perBankWrBursts::1             0                       # Per bank write bursts (Count)
system.mem_ctrl.dram.perBankWrBursts::2             0                       # Per bank write bursts (Count)
system.mem_ctrl.dram.perBankWrBursts::3             0                       # Per bank write bursts (Count)
system.mem_ctrl.dram.perBankWrBursts::4             0                       # Per bank write bursts (Count)
system.mem_ctrl.dram.perBankWrBursts::5             0                       # Per bank write bursts (Count)
system.mem_ctrl.dram.perBankWrBursts::6             0                       # Per bank write bursts (Count)
system.mem_ctrl.dram.perBankWrBursts::7             0                       # Per bank write bursts (Count)
system.mem_ctrl.dram.perBankWrBursts::8             0                       # Per bank write bursts (Count)
system.mem_ctrl.dram.perBankWrBursts::9             0                       # Per bank write bursts (Count)
system.mem_ctrl.dram.perBankWrBursts::10            0                       # Per bank write bursts (Count)
system.mem_ctrl.dram.perBankWrBursts::11            0                       # Per bank write bursts (Count)
system.mem_ctrl.dram.perBankWrBursts::12            0                       # Per bank write bursts (Count)
system.mem_ctrl.dram.perBankWrBursts::13            0                       # Per bank write bursts (Count)
system.mem_ctrl.dram.perBankWrBursts::14            0                       # Per bank write bursts (Count)
system.mem_ctrl.dram.perBankWrBursts::15            0                       # Per bank write bursts (Count)
system.mem_ctrl.dram.perBankWrBursts::16            0                       # Per bank write bursts (Count)
system.mem_ctrl.dram.perBankWrBursts::17            0                       # Per bank write bursts (Count)
system.mem_ctrl.dram.perBankWrBursts::18            0                       # Per bank write bursts (Count)
system.mem_ctrl.dram.perBankWrBursts::19            0                       # Per bank write bursts (Count)
system.mem_ctrl.dram.perBankWrBursts::20            0                       # Per bank write bursts (Count)
system.mem_ctrl.dram.perBankWrBursts::21            0                       # Per bank write bursts (Count)
system.mem_ctrl.dram.perBankWrBursts::22            0                       # Per bank write bursts (Count)
system.mem_ctrl.dram.perBankWrBursts::23            0                       # Per bank write bursts (Count)
system.mem_ctrl.dram.perBankWrBursts::24            0                       # Per bank write bursts (Count)
system.mem_ctrl.dram.perBankWrBursts::25            0                       # Per bank write bursts (Count)
system.mem_ctrl.dram.perBankWrBursts::26            0                       # Per bank write bursts (Count)
system.mem_ctrl.dram.perBankWrBursts::27            0                       # Per bank write bursts (Count)
system.mem_ctrl.dram.perBankWrBursts::28            0                       # Per bank write bursts (Count)
system.mem_ctrl.dram.perBankWrBursts::29            0                       # Per bank write bursts (Count)
system.mem_ctrl.dram.perBankWrBursts::30            0                       # Per bank write bursts (Count)
system.mem_ctrl.dram.perBankWrBursts::31            0                       # Per bank write bursts (Count)
system.mem_ctrl.dram.totQLat                 35815742                       # Total ticks spent queuing (Tick)
system.mem_ctrl.dram.totBusLat               11288816                       # Total ticks spent in databus transfers (Tick)
system.mem_ctrl.dram.totMemAccLat            95078638                       # Total ticks spent from burst creation until serviced by the DRAM (Tick)
system.mem_ctrl.dram.avgQLat                 10571.35                       # Average queueing delay per DRAM burst ((Tick/Count))
system.mem_ctrl.dram.avgBusLat                3332.00                       # Average bus latency per DRAM burst ((Tick/Count))
system.mem_ctrl.dram.avgMemAccLat            28063.35                       # Average memory access latency per DRAM burst ((Tick/Count))
system.mem_ctrl.dram.readRowHits                 2410                       # Number of row buffer hits during reads (Count)
system.mem_ctrl.dram.writeRowHits                   0                       # Number of row buffer hits during writes (Count)
system.mem_ctrl.dram.readRowHitRate             71.13                       # Row buffer hit rate for reads (Ratio)
system.mem_ctrl.dram.writeRowHitRate              nan                       # Row buffer hit rate for writes (Ratio)
system.mem_ctrl.dram.bytesPerActivate::samples          977                       # Bytes accessed per row activation (Byte)
system.mem_ctrl.dram.bytesPerActivate::mean   221.871034                       # Bytes accessed per row activation (Byte)
system.mem_ctrl.dram.bytesPerActivate::gmean   128.740965                       # Bytes accessed per row activation (Byte)
system.mem_ctrl.dram.bytesPerActivate::stdev   288.227006                       # Bytes accessed per row activation (Byte)
system.mem_ctrl.dram.bytesPerActivate::0-127          510     52.20%     52.20% # Bytes accessed per row activation (Byte)
system.mem_ctrl.dram.bytesPerActivate::128-255          242     24.77%     76.97% # Bytes accessed per row activation (Byte)
system.mem_ctrl.dram.bytesPerActivate::256-383           52      5.32%     82.29% # Bytes accessed per row activation (Byte)
system.mem_ctrl.dram.bytesPerActivate::384-511           32      3.28%     85.57% # Bytes accessed per row activation (Byte)
system.mem_ctrl.dram.bytesPerActivate::512-639           22      2.25%     87.82% # Bytes accessed per row activation (Byte)
system.mem_ctrl.dram.bytesPerActivate::640-767           22      2.25%     90.07% # Bytes accessed per row activation (Byte)
system.mem_ctrl.dram.bytesPerActivate::768-895            8      0.82%     90.89% # Bytes accessed per row activation (Byte)
system.mem_ctrl.dram.bytesPerActivate::896-1023            9      0.92%     91.81% # Bytes accessed per row activation (Byte)
system.mem_ctrl.dram.bytesPerActivate::1024-1151           80      8.19%    100.00% # Bytes accessed per row activation (Byte)
system.mem_ctrl.dram.bytesPerActivate::total          977                       # Bytes accessed per row activation (Byte)
system.mem_ctrl.dram.bytesRead                 216832                       # Total bytes read (Byte)
system.mem_ctrl.dram.bytesWritten                   0                       # Total bytes written (Byte)
system.mem_ctrl.dram.avgRdBW                56.492876                       # Average DRAM read bandwidth in MiBytes/s ((Byte/Second))
system.mem_ctrl.dram.avgWrBW                        0                       # Average DRAM write bandwidth in MiBytes/s ((Byte/Second))
system.mem_ctrl.dram.peakBW                  19207.00                       # Theoretical peak bandwidth in MiByte/s ((Byte/Second))
system.mem_ctrl.dram.busUtil                     0.29                       # Data bus utilization in percentage (Ratio)
system.mem_ctrl.dram.busUtilRead                 0.29                       # Data bus utilization in percentage for reads (Ratio)
system.mem_ctrl.dram.busUtilWrite                0.00                       # Data bus utilization in percentage for writes (Ratio)
system.mem_ctrl.dram.pageHitRate                71.13                       # Row buffer hit rate, read and write combined (Ratio)
system.mem_ctrl.dram.power_state.pwrStateResidencyTicks::UNDEFINED   3838218500                       # Cumulative time (in ticks) in various power states (Tick)
system.mem_ctrl.dram.rank0.actEnergy     2529307.872000                       # Energy for activate commands per rank (pJ) (Joule)
system.mem_ctrl.dram.rank0.preEnergy     3358536.048000                       # Energy for precharge commands per rank (pJ) (Joule)
system.mem_ctrl.dram.rank0.readEnergy    10835472.076800                       # Energy for read commands per rank (pJ) (Joule)
system.mem_ctrl.dram.rank0.writeEnergy              0                       # Energy for write commands per rank (pJ) (Joule)
system.mem_ctrl.dram.rank0.refreshEnergy 681605792.582403                       # Energy for refresh commands per rank (pJ) (Joule)
system.mem_ctrl.dram.rank0.actBackEnergy 2141521312.694399                       # Energy for active background per rank (pJ) (Joule)
system.mem_ctrl.dram.rank0.preBackEnergy 860126723.635200                       # Energy for precharge background per rank (pJ) (Joule)
system.mem_ctrl.dram.rank0.actPowerDownEnergy            0                       # Energy for active power-down per rank (pJ) (Joule)
system.mem_ctrl.dram.rank0.prePowerDownEnergy            0                       # Energy for precharge power-down per rank (pJ) (Joule)
system.mem_ctrl.dram.rank0.selfRefreshEnergy            0                       # Energy for self refresh per rank (pJ) (Joule)
system.mem_ctrl.dram.rank0.totalEnergy   3699977144.908801                       # Total energy per rank (pJ) (Joule)
system.mem_ctrl.dram.rank0.averagePower    963.982938                       # Core power per rank (mW) (Watt)
system.mem_ctrl.dram.rank0.totalIdleTime            0                       # Total Idle time Per DRAM Rank (Tick)
system.mem_ctrl.dram.rank0.pwrStateTime::IDLE   1303716042                       # Time in different power states (Tick)
system.mem_ctrl.dram.rank0.pwrStateTime::REF    172200000                       # Time in different power states (Tick)
system.mem_ctrl.dram.rank0.pwrStateTime::SREF            0                       # Time in different power states (Tick)
system.mem_ctrl.dram.rank0.pwrStateTime::PRE_PDN            0                       # Time in different power states (Tick)
system.mem_ctrl.dram.rank0.pwrStateTime::ACT   2362302458                       # Time in different power states (Tick)
system.mem_ctrl.dram.rank0.pwrStateTime::ACT_PDN            0                       # Time in different power states (Tick)
system.mem_ctrl.dram.rank1.actEnergy     520831.584000                       # Energy for activate commands per rank (pJ) (Joule)
system.mem_ctrl.dram.rank1.preEnergy     692438.913600                       # Energy for precharge commands per rank (pJ) (Joule)
system.mem_ctrl.dram.rank1.readEnergy    3415529.241600                       # Energy for read commands per rank (pJ) (Joule)
system.mem_ctrl.dram.rank1.writeEnergy              0                       # Energy for write commands per rank (pJ) (Joule)
system.mem_ctrl.dram.rank1.refreshEnergy 681605792.582403                       # Energy for refresh commands per rank (pJ) (Joule)
system.mem_ctrl.dram.rank1.actBackEnergy 271011655.958394                       # Energy for active background per rank (pJ) (Joule)
system.mem_ctrl.dram.rank1.preBackEnergy 2297354482.483210                       # Energy for precharge background per rank (pJ) (Joule)
system.mem_ctrl.dram.rank1.actPowerDownEnergy            0                       # Energy for active power-down per rank (pJ) (Joule)
system.mem_ctrl.dram.rank1.prePowerDownEnergy            0                       # Energy for precharge power-down per rank (pJ) (Joule)
system.mem_ctrl.dram.rank1.selfRefreshEnergy            0                       # Energy for self refresh per rank (pJ) (Joule)
system.mem_ctrl.dram.rank1.totalEnergy   3254600730.763204                       # Total energy per rank (pJ) (Joule)
system.mem_ctrl.dram.rank1.averagePower    847.945663                       # Core power per rank (mW) (Watt)
system.mem_ctrl.dram.rank1.totalIdleTime            0                       # Total Idle time Per DRAM Rank (Tick)
system.mem_ctrl.dram.rank1.pwrStateTime::IDLE   3512137640                       # Time in different power states (Tick)
system.mem_ctrl.dram.rank1.pwrStateTime::REF    172200000                       # Time in different power states (Tick)
system.mem_ctrl.dram.rank1.pwrStateTime::SREF            0                       # Time in different power states (Tick)
system.mem_ctrl.dram.rank1.pwrStateTime::PRE_PDN            0                       # Time in different power states (Tick)
system.mem_ctrl.dram.rank1.pwrStateTime::ACT    153880860                       # Time in different power states (Tick)
system.mem_ctrl.dram.rank1.pwrStateTime::ACT_PDN            0                       # Time in different power states (Tick)
system.mem_ctrl.power_state.pwrStateResidencyTicks::UNDEFINED   3838218500                       # Cumulative time (in ticks) in various power states (Tick)
system.membus.transDist::ReadResp                1604                       # Transaction distribution (Count)
system.membus.transDist::WritebackDirty             9                       # Transaction distribution (Count)
system.membus.transDist::CleanEvict               120                       # Transaction distribution (Count)
system.membus.transDist::ReadExReq               1785                       # Transaction distribution (Count)
system.membus.transDist::ReadExResp              1785                       # Transaction distribution (Count)
system.membus.transDist::ReadSharedReq           1604                       # Transaction distribution (Count)
system.membus.pktCount_system.l2cache.mem_side_port::system.mem_ctrl.port         6907                       # Packet count per connected requestor and responder (Count)
system.membus.pktCount::total                    6907                       # Packet count per connected requestor and responder (Count)
system.membus.pktSize_system.l2cache.mem_side_port::system.mem_ctrl.port       217472                       # Cumulative packet size per connected requestor and responder (Byte)
system.membus.pktSize::total                   217472                       # Cumulative packet size per connected requestor and responder (Byte)
system.membus.snoops                                0                       # Total snoops (Count)
system.membus.snoopTraffic                          0                       # Total snoop traffic (Byte)
system.membus.snoopFanout::samples               3389                       # Request fanout histogram (Count)
system.membus.snoopFanout::mean                     0                       # Request fanout histogram (Count)
system.membus.snoopFanout::stdev                    0                       # Request fanout histogram (Count)
system.membus.snoopFanout::underflows               0      0.00%      0.00% # Request fanout histogram (Count)
system.membus.snoopFanout::0                     3389    100.00%    100.00% # Request fanout histogram (Count)
system.membus.snoopFanout::1                        0      0.00%    100.00% # Request fanout histogram (Count)
system.membus.snoopFanout::overflows                0      0.00%    100.00% # Request fanout histogram (Count)
system.membus.snoopFanout::min_value                0                       # Request fanout histogram (Count)
system.membus.snoopFanout::max_value                0                       # Request fanout histogram (Count)
system.membus.snoopFanout::total                 3389                       # Request fanout histogram (Count)
system.membus.power_state.pwrStateResidencyTicks::UNDEFINED   3838218500                       # Cumulative time (in ticks) in various power states (Tick)
system.membus.reqLayer0.occupancy             1777000                       # Layer occupancy (ticks) (Tick)
system.membus.reqLayer0.utilization               0.0                       # Layer utilization (Ratio)
system.membus.respLayer0.occupancy            8848362                       # Layer occupancy (ticks) (Tick)
system.membus.respLayer0.utilization              0.0                       # Layer utilization (Ratio)
system.membus.snoop_filter.totRequests           3518                       # Total number of requests made to the snoop filter. (Count)
system.membus.snoop_filter.hitSingleRequests          129                       # Number of requests hitting in the snoop filter with a single holder of the requested data. (Count)
system.membus.snoop_filter.hitMultiRequests            0                       # Number of requests hitting in the snoop filter with multiple (>1) holders of the requested data. (Count)
system.membus.snoop_filter.totSnoops                0                       # Total number of snoops made to the snoop filter. (Count)
system.membus.snoop_filter.hitSingleSnoops            0                       # Number of snoops hitting in the snoop filter with a single holder of the requested data. (Count)
system.membus.snoop_filter.hitMultiSnoops            0                       # Number of snoops hitting in the snoop filter with multiple (>1) holders of the requested data. (Count)
system.workload.inst.arm                            0                       # number of arm instructions executed (Count)
system.workload.inst.quiesce                        0                       # number of quiesce instructions executed (Count)

---------- End Simulation Statistics   ----------
