
---------- Begin Simulation Statistics ----------
simSeconds                                   0.003812                       # Number of seconds simulated (Second)
simTicks                                   3811842000                       # Number of ticks simulated (Tick)
finalTick                                  3811842000                       # Number of ticks from beginning of simulation (restored from checkpoints and never reset) (Tick)
simFreq                                  1000000000000                       # The number of ticks per simulated second ((Tick/Second))
hostSeconds                                     29.82                       # Real time elapsed on the host (Second)
hostTickRate                                127830624                       # The number of ticks simulated per host second (ticks/s) ((Tick/Second))
hostMemory                                    2271896                       # Number of bytes of host memory used (Byte)
simInsts                                     10000005                       # Number of instructions simulated (Count)
simOps                                       11441045                       # Number of ops (including micro ops) simulated (Count)
hostInstRate                                   335351                       # Simulator instruction rate (inst/s) ((Count/Second))
hostOpRate                                     383676                       # Simulator op (including micro ops) rate (op/s) ((Count/Second))
system.clk_domain.clock                           500                       # Clock period in ticks (Tick)
system.clk_domain.voltage_domain.voltage            1                       # Voltage in Volts (Volt)
system.cpu.numCycles                          7623685                       # Number of cpu cycles simulated (Cycle)
system.cpu.numWorkItemsStarted                      0                       # Number of work items this cpu started (Count)
system.cpu.numWorkItemsCompleted                    0                       # Number of work items this cpu completed (Count)
system.cpu.instsAdded                        16657635                       # Number of instructions added to the IQ (excludes non-spec) (Count)
system.cpu.nonSpecInstsAdded                     1295                       # Number of non-speculative instructions added to the IQ (Count)
system.cpu.instsIssued                       14426183                       # Number of instructions issued (Count)
system.cpu.squashedInstsIssued                  30835                       # Number of squashed instructions issued (Count)
system.cpu.squashedInstsExamined              5217826                       # Number of squashed instructions iterated over during squash; mainly for profiling (Count)
system.cpu.squashedOperandsExamined          13075381                       # Number of squashed operands that are examined and possibly removed from graph (Count)
system.cpu.squashedNonSpecRemoved                 499                       # Number of squashed non-spec instructions that were removed (Count)
system.cpu.numIssuedDist::samples             7534894                       # Number of insts issued each cycle (Count)
system.cpu.numIssuedDist::mean               1.914583                       # Number of insts issued each cycle (Count)
system.cpu.numIssuedDist::stdev              1.948324                       # Number of insts issued each cycle (Count)
system.cpu.numIssuedDist::underflows                0      0.00%      0.00% # Number of insts issued each cycle (Count)
system.cpu.numIssuedDist::0                   2470992     32.79%     32.79% # Number of insts issued each cycle (Count)
system.cpu.numIssuedDist::1                   1347605     17.88%     50.68% # Number of insts issued each cycle (Count)
system.cpu.numIssuedDist::2                   1248893     16.57%     67.25% # Number of insts issued each cycle (Count)
system.cpu.numIssuedDist::3                    913764     12.13%     79.38% # Number of insts issued each cycle (Count)
system.cpu.numIssuedDist::4                    653592      8.67%     88.05% # Number of insts issued each cycle (Count)
system.cpu.numIssuedDist::5                    451662      5.99%     94.05% # Number of insts issued each cycle (Count)
system.cpu.numIssuedDist::6                    256776      3.41%     97.46% # Number of insts issued each cycle (Count)
system.cpu.numIssuedDist::7                    106714      1.42%     98.87% # Number of insts issued each cycle (Count)
system.cpu.numIssuedDist::8                     84896      1.13%    100.00% # Number of insts issued each cycle (Count)
system.cpu.numIssuedDist::overflows                 0      0.00%    100.00% # Number of insts issued each cycle (Count)
system.cpu.numIssuedDist::min_value                 0                       # Number of insts issued each cycle (Count)
system.cpu.numIssuedDist::max_value                 8                       # Number of insts issued each cycle (Count)
system.cpu.numIssuedDist::total               7534894                       # Number of insts issued each cycle (Count)
system.cpu.statFuBusy::No_OpClass                   0      0.00%      0.00% # attempts to use FU when none available (Count)
system.cpu.statFuBusy::IntAlu                   20665     11.07%     11.07% # attempts to use FU when none available (Count)
system.cpu.statFuBusy::IntMult                      0      0.00%     11.07% # attempts to use FU when none available (Count)
system.cpu.statFuBusy::IntDiv                       0      0.00%     11.07% # attempts to use FU when none available (Count)
system.cpu.statFuBusy::FloatAdd                     0      0.00%     11.07% # attempts to use FU when none available (Count)
system.cpu.statFuBusy::FloatCmp                     0      0.00%     11.07% # attempts to use FU when none available (Count)
system.cpu.statFuBusy::FloatCvt                     0      0.00%     11.07% # attempts to use FU when none available (Count)
system.cpu.statFuBusy::FloatMult                    0      0.00%     11.07% # attempts to use FU when none available (Count)
system.cpu.statFuBusy::FloatMultAcc                 0      0.00%     11.07% # attempts to use FU when none available (Count)
system.cpu.statFuBusy::FloatDiv                     0      0.00%     11.07% # attempts to use FU when none available (Count)
system.cpu.statFuBusy::FloatMisc                    0      0.00%     11.07% # attempts to use FU when none available (Count)
system.cpu.statFuBusy::FloatSqrt                    0      0.00%     11.07% # attempts to use FU when none available (Count)
system.cpu.statFuBusy::SimdAdd                      0      0.00%     11.07% # attempts to use FU when none available (Count)
system.cpu.statFuBusy::SimdAddAcc                   0      0.00%     11.07% # attempts to use FU when none available (Count)
system.cpu.statFuBusy::SimdAlu                      0      0.00%     11.07% # attempts to use FU when none available (Count)
system.cpu.statFuBusy::SimdCmp                      0      0.00%     11.07% # attempts to use FU when none available (Count)
system.cpu.statFuBusy::SimdCvt                      0      0.00%     11.07% # attempts to use FU when none available (Count)
system.cpu.statFuBusy::SimdMisc                     0      0.00%     11.07% # attempts to use FU when none available (Count)
system.cpu.statFuBusy::SimdMult                     0      0.00%     11.07% # attempts to use FU when none available (Count)
system.cpu.statFuBusy::SimdMultAcc                  0      0.00%     11.07% # attempts to use FU when none available (Count)
system.cpu.statFuBusy::SimdShift                    0      0.00%     11.07% # attempts to use FU when none available (Count)
system.cpu.statFuBusy::SimdShiftAcc                 0      0.00%     11.07% # attempts to use FU when none available (Count)
system.cpu.statFuBusy::SimdDiv                      0      0.00%     11.07% # attempts to use FU when none available (Count)
system.cpu.statFuBusy::SimdSqrt                     0      0.00%     11.07% # attempts to use FU when none available (Count)
system.cpu.statFuBusy::SimdFloatAdd                 0      0.00%     11.07% # attempts to use FU when none available (Count)
system.cpu.statFuBusy::SimdFloatAlu                 0      0.00%     11.07% # attempts to use FU when none available (Count)
system.cpu.statFuBusy::SimdFloatCmp                 0      0.00%     11.07% # attempts to use FU when none available (Count)
system.cpu.statFuBusy::SimdFloatCvt                 0      0.00%     11.07% # attempts to use FU when none available (Count)
system.cpu.statFuBusy::SimdFloatDiv                 0      0.00%     11.07% # attempts to use FU when none available (Count)
system.cpu.statFuBusy::SimdFloatMisc                0      0.00%     11.07% # attempts to use FU when none available (Count)
system.cpu.statFuBusy::SimdFloatMult                0      0.00%     11.07% # attempts to use FU when none available (Count)
system.cpu.statFuBusy::SimdFloatMultAcc             0      0.00%     11.07% # attempts to use FU when none available (Count)
system.cpu.statFuBusy::SimdFloatSqrt                0      0.00%     11.07% # attempts to use FU when none available (Count)
system.cpu.statFuBusy::SimdReduceAdd                0      0.00%     11.07% # attempts to use FU when none available (Count)
system.cpu.statFuBusy::SimdReduceAlu                0      0.00%     11.07% # attempts to use FU when none available (Count)
system.cpu.statFuBusy::SimdReduceCmp                0      0.00%     11.07% # attempts to use FU when none available (Count)
system.cpu.statFuBusy::SimdFloatReduceAdd            0      0.00%     11.07% # attempts to use FU when none available (Count)
system.cpu.statFuBusy::SimdFloatReduceCmp            0      0.00%     11.07% # attempts to use FU when none available (Count)
system.cpu.statFuBusy::SimdAes                      0      0.00%     11.07% # attempts to use FU when none available (Count)
system.cpu.statFuBusy::SimdAesMix                   0      0.00%     11.07% # attempts to use FU when none available (Count)
system.cpu.statFuBusy::SimdSha1Hash                 0      0.00%     11.07% # attempts to use FU when none available (Count)
system.cpu.statFuBusy::SimdSha1Hash2                0      0.00%     11.07% # attempts to use FU when none available (Count)
system.cpu.statFuBusy::SimdSha256Hash               0      0.00%     11.07% # attempts to use FU when none available (Count)
system.cpu.statFuBusy::SimdSha256Hash2              0      0.00%     11.07% # attempts to use FU when none available (Count)
system.cpu.statFuBusy::SimdShaSigma2                0      0.00%     11.07% # attempts to use FU when none available (Count)
system.cpu.statFuBusy::SimdShaSigma3                0      0.00%     11.07% # attempts to use FU when none available (Count)
system.cpu.statFuBusy::SimdPredAlu                  0      0.00%     11.07% # attempts to use FU when none available (Count)
system.cpu.statFuBusy::MemRead                  96089     51.46%     62.53% # attempts to use FU when none available (Count)
system.cpu.statFuBusy::MemWrite                 69975     37.47%    100.00% # attempts to use FU when none available (Count)
system.cpu.statFuBusy::FloatMemRead                 0      0.00%    100.00% # attempts to use FU when none available (Count)
system.cpu.statFuBusy::FloatMemWrite                0      0.00%    100.00% # attempts to use FU when none available (Count)
system.cpu.statFuBusy::IprAccess                    0      0.00%    100.00% # attempts to use FU when none available (Count)
system.cpu.statFuBusy::InstPrefetch                 0      0.00%    100.00% # attempts to use FU when none available (Count)
system.cpu.statIssuedInstType_0::No_OpClass          236      0.00%      0.00% # Number of instructions issued per FU type, per thread (Count)
system.cpu.statIssuedInstType_0::IntAlu       8894834     61.66%     61.66% # Number of instructions issued per FU type, per thread (Count)
system.cpu.statIssuedInstType_0::IntMult        50129      0.35%     62.01% # Number of instructions issued per FU type, per thread (Count)
system.cpu.statIssuedInstType_0::IntDiv             0      0.00%     62.01% # Number of instructions issued per FU type, per thread (Count)
system.cpu.statIssuedInstType_0::FloatAdd            0      0.00%     62.01% # Number of instructions issued per FU type, per thread (Count)
system.cpu.statIssuedInstType_0::FloatCmp            0      0.00%     62.01% # Number of instructions issued per FU type, per thread (Count)
system.cpu.statIssuedInstType_0::FloatCvt            0      0.00%     62.01% # Number of instructions issued per FU type, per thread (Count)
system.cpu.statIssuedInstType_0::FloatMult            0      0.00%     62.01% # Number of instructions issued per FU type, per thread (Count)
system.cpu.statIssuedInstType_0::FloatMultAcc            0      0.00%     62.01% # Number of instructions issued per FU type, per thread (Count)
system.cpu.statIssuedInstType_0::FloatDiv            0      0.00%     62.01% # Number of instructions issued per FU type, per thread (Count)
system.cpu.statIssuedInstType_0::FloatMisc            0      0.00%     62.01% # Number of instructions issued per FU type, per thread (Count)
system.cpu.statIssuedInstType_0::FloatSqrt            0      0.00%     62.01% # Number of instructions issued per FU type, per thread (Count)
system.cpu.statIssuedInstType_0::SimdAdd            0      0.00%     62.01% # Number of instructions issued per FU type, per thread (Count)
system.cpu.statIssuedInstType_0::SimdAddAcc            0      0.00%     62.01% # Number of instructions issued per FU type, per thread (Count)
system.cpu.statIssuedInstType_0::SimdAlu            0      0.00%     62.01% # Number of instructions issued per FU type, per thread (Count)
system.cpu.statIssuedInstType_0::SimdCmp            0      0.00%     62.01% # Number of instructions issued per FU type, per thread (Count)
system.cpu.statIssuedInstType_0::SimdCvt            0      0.00%     62.01% # Number of instructions issued per FU type, per thread (Count)
system.cpu.statIssuedInstType_0::SimdMisc            0      0.00%     62.01% # Number of instructions issued per FU type, per thread (Count)
system.cpu.statIssuedInstType_0::SimdMult            0      0.00%     62.01% # Number of instructions issued per FU type, per thread (Count)
system.cpu.statIssuedInstType_0::SimdMultAcc            0      0.00%     62.01% # Number of instructions issued per FU type, per thread (Count)
system.cpu.statIssuedInstType_0::SimdShift            0      0.00%     62.01% # Number of instructions issued per FU type, per thread (Count)
system.cpu.statIssuedInstType_0::SimdShiftAcc            0      0.00%     62.01% # Number of instructions issued per FU type, per thread (Count)
system.cpu.statIssuedInstType_0::SimdDiv            0      0.00%     62.01% # Number of instructions issued per FU type, per thread (Count)
system.cpu.statIssuedInstType_0::SimdSqrt            0      0.00%     62.01% # Number of instructions issued per FU type, per thread (Count)
system.cpu.statIssuedInstType_0::SimdFloatAdd            0      0.00%     62.01% # Number of instructions issued per FU type, per thread (Count)
system.cpu.statIssuedInstType_0::SimdFloatAlu            0      0.00%     62.01% # Number of instructions issued per FU type, per thread (Count)
system.cpu.statIssuedInstType_0::SimdFloatCmp            0      0.00%     62.01% # Number of instructions issued per FU type, per thread (Count)
system.cpu.statIssuedInstType_0::SimdFloatCvt            0      0.00%     62.01% # Number of instructions issued per FU type, per thread (Count)
system.cpu.statIssuedInstType_0::SimdFloatDiv            0      0.00%     62.01% # Number of instructions issued per FU type, per thread (Count)
system.cpu.statIssuedInstType_0::SimdFloatMisc            0      0.00%     62.01% # Number of instructions issued per FU type, per thread (Count)
system.cpu.statIssuedInstType_0::SimdFloatMult            0      0.00%     62.01% # Number of instructions issued per FU type, per thread (Count)
system.cpu.statIssuedInstType_0::SimdFloatMultAcc            2      0.00%     62.01% # Number of instructions issued per FU type, per thread (Count)
system.cpu.statIssuedInstType_0::SimdFloatSqrt            0      0.00%     62.01% # Number of instructions issued per FU type, per thread (Count)
system.cpu.statIssuedInstType_0::SimdReduceAdd            0      0.00%     62.01% # Number of instructions issued per FU type, per thread (Count)
system.cpu.statIssuedInstType_0::SimdReduceAlu            0      0.00%     62.01% # Number of instructions issued per FU type, per thread (Count)
system.cpu.statIssuedInstType_0::SimdReduceCmp            0      0.00%     62.01% # Number of instructions issued per FU type, per thread (Count)
system.cpu.statIssuedInstType_0::SimdFloatReduceAdd            0      0.00%     62.01% # Number of instructions issued per FU type, per thread (Count)
system.cpu.statIssuedInstType_0::SimdFloatReduceCmp            0      0.00%     62.01% # Number of instructions issued per FU type, per thread (Count)
system.cpu.statIssuedInstType_0::SimdAes            0      0.00%     62.01% # Number of instructions issued per FU type, per thread (Count)
system.cpu.statIssuedInstType_0::SimdAesMix            0      0.00%     62.01% # Number of instructions issued per FU type, per thread (Count)
system.cpu.statIssuedInstType_0::SimdSha1Hash            0      0.00%     62.01% # Number of instructions issued per FU type, per thread (Count)
system.cpu.statIssuedInstType_0::SimdSha1Hash2            0      0.00%     62.01% # Number of instructions issued per FU type, per thread (Count)
system.cpu.statIssuedInstType_0::SimdSha256Hash            0      0.00%     62.01% # Number of instructions issued per FU type, per thread (Count)
system.cpu.statIssuedInstType_0::SimdSha256Hash2            0      0.00%     62.01% # Number of instructions issued per FU type, per thread (Count)
system.cpu.statIssuedInstType_0::SimdShaSigma2            0      0.00%     62.01% # Number of instructions issued per FU type, per thread (Count)
system.cpu.statIssuedInstType_0::SimdShaSigma3            0      0.00%     62.01% # Number of instructions issued per FU type, per thread (Count)
system.cpu.statIssuedInstType_0::SimdPredAlu            0      0.00%     62.01% # Number of instructions issued per FU type, per thread (Count)
system.cpu.statIssuedInstType_0::MemRead      3435062     23.81%     85.82% # Number of instructions issued per FU type, per thread (Count)
system.cpu.statIssuedInstType_0::MemWrite      2045920     14.18%    100.00% # Number of instructions issued per FU type, per thread (Count)
system.cpu.statIssuedInstType_0::FloatMemRead            0      0.00%    100.00% # Number of instructions issued per FU type, per thread (Count)
system.cpu.statIssuedInstType_0::FloatMemWrite            0      0.00%    100.00% # Number of instructions issued per FU type, per thread (Count)
system.cpu.statIssuedInstType_0::IprAccess            0      0.00%    100.00% # Number of instructions issued per FU type, per thread (Count)
system.cpu.statIssuedInstType_0::InstPrefetch            0      0.00%    100.00% # Number of instructions issued per FU type, per thread (Count)
system.cpu.statIssuedInstType_0::total       14426183                       # Number of instructions issued per FU type, per thread (Count)
system.cpu.issueRate                         1.892285                       # Inst issue rate ((Count/Cycle))
system.cpu.fuBusy                              186729                       # FU busy when requested (Count)
system.cpu.fuBusyRate                        0.012944                       # FU busy rate (busy events/executed inst) ((Count/Count))
system.cpu.intInstQueueReads                 36604821                       # Number of integer instruction queue reads (Count)
system.cpu.intInstQueueWrites                21877355                       # Number of integer instruction queue writes (Count)
system.cpu.intInstQueueWakeupAccesses        13714277                       # Number of integer instruction queue wakeup accesses (Count)
system.cpu.fpInstQueueReads                         0                       # Number of floating instruction queue reads (Count)
system.cpu.fpInstQueueWrites                        0                       # Number of floating instruction queue writes (Count)
system.cpu.fpInstQueueWakeupAccesses                0                       # Number of floating instruction queue wakeup accesses (Count)
system.cpu.vecInstQueueReads                        0                       # Number of vector instruction queue reads (Count)
system.cpu.vecInstQueueWrites                       0                       # Number of vector instruction queue writes (Count)
system.cpu.vecInstQueueWakeupAccesses               0                       # Number of vector instruction queue wakeup accesses (Count)
system.cpu.intAluAccesses                    14612676                       # Number of integer alu accesses (Count)
system.cpu.fpAluAccesses                            0                       # Number of floating point alu accesses (Count)
system.cpu.vecAluAccesses                           0                       # Number of vector alu accesses (Count)
system.cpu.numInsts                          14113377                       # Number of executed instructions (Count)
system.cpu.numLoadInsts                       3302669                       # Number of load instructions executed (Count)
system.cpu.numSquashedInsts                    312803                       # Number of squashed instructions skipped in execute (Count)
system.cpu.numSwp                                   0                       # Number of swp insts executed (Count)
system.cpu.numNop                                   0                       # Number of nop insts executed (Count)
system.cpu.numRefs                            5286869                       # Number of memory reference insts executed (Count)
system.cpu.numBranches                        2250602                       # Number of branches executed (Count)
system.cpu.numStoreInsts                      1984200                       # Number of stores executed (Count)
system.cpu.numRate                           1.851254                       # Inst execution rate ((Count/Cycle))
system.cpu.timesIdled                            9262                       # Number of times that the entire CPU went into an idle state and unscheduled itself (Count)
system.cpu.idleCycles                           88791                       # Total number of cycles that the CPU has spent unscheduled due to idling (Cycle)
system.cpu.committedInsts                    10000005                       # Number of Instructions Simulated (Count)
system.cpu.committedOps                      11441045                       # Number of Ops (including micro ops) Simulated (Count)
system.cpu.cpi                               0.762368                       # CPI: Cycles Per Instruction ((Cycle/Count))
system.cpu.totalCpi                          0.762368                       # CPI: Total CPI of All Threads ((Cycle/Count))
system.cpu.ipc                               1.311702                       # IPC: Instructions Per Cycle ((Count/Cycle))
system.cpu.totalIpc                          1.311702                       # IPC: Total IPC of All Threads ((Count/Cycle))
system.cpu.intRegfileReads                   16000330                       # Number of integer regfile reads (Count)
system.cpu.intRegfileWrites                   8231053                       # Number of integer regfile writes (Count)
system.cpu.vecRegfileReads                         40                       # number of vector regfile reads (Count)
system.cpu.vecRegfileWrites                         8                       # number of vector regfile writes (Count)
system.cpu.ccRegfileReads                    51113641                       # number of cc regfile reads (Count)
system.cpu.ccRegfileWrites                    6665207                       # number of cc regfile writes (Count)
system.cpu.miscRegfileReads                   4911576                       # number of misc regfile reads (Count)
system.cpu.miscRegfileWrites                     1545                       # number of misc regfile writes (Count)
system.cpu.MemDepUnit__0.insertedLoads        3726651                       # Number of loads inserted to the mem dependence unit. (Count)
system.cpu.MemDepUnit__0.insertedStores       2316741                       # Number of stores inserted to the mem dependence unit. (Count)
system.cpu.MemDepUnit__0.conflictingLoads       471602                       # Number of conflicting loads. (Count)
system.cpu.MemDepUnit__0.conflictingStores       420578                       # Number of conflicting stores. (Count)
system.cpu.MemDepUnit__1.insertedLoads              0                       # Number of loads inserted to the mem dependence unit. (Count)
system.cpu.MemDepUnit__1.insertedStores             0                       # Number of stores inserted to the mem dependence unit. (Count)
system.cpu.MemDepUnit__1.conflictingLoads            0                       # Number of conflicting loads. (Count)
system.cpu.MemDepUnit__1.conflictingStores            0                       # Number of conflicting stores. (Count)
system.cpu.MemDepUnit__2.insertedLoads              0                       # Number of loads inserted to the mem dependence unit. (Count)
system.cpu.MemDepUnit__2.insertedStores             0                       # Number of stores inserted to the mem dependence unit. (Count)
system.cpu.MemDepUnit__2.conflictingLoads            0                       # Number of conflicting loads. (Count)
system.cpu.MemDepUnit__2.conflictingStores            0                       # Number of conflicting stores. (Count)
system.cpu.MemDepUnit__3.insertedLoads              0                       # Number of loads inserted to the mem dependence unit. (Count)
system.cpu.MemDepUnit__3.insertedStores             0                       # Number of stores inserted to the mem dependence unit. (Count)
system.cpu.MemDepUnit__3.conflictingLoads            0                       # Number of conflicting loads. (Count)
system.cpu.MemDepUnit__3.conflictingStores            0                       # Number of conflicting stores. (Count)
system.cpu.branchPred.lookups                 3216573                       # Number of BP lookups (Count)
system.cpu.branchPred.condPredicted           2282093                       # Number of conditional branches predicted (Count)
system.cpu.branchPred.condIncorrect            219777                       # Number of conditional branches incorrect (Count)
system.cpu.branchPred.BTBLookups              1554572                       # Number of BTB lookups (Count)
system.cpu.branchPred.BTBHits                  939742                       # Number of BTB hits (Count)
system.cpu.branchPred.BTBHitRatio            0.604502                       # BTB Hit Ratio (Ratio)
system.cpu.branchPred.RASUsed                  357621                       # Number of times the RAS was used to get a target. (Count)
system.cpu.branchPred.RASIncorrect               7196                       # Number of incorrect RAS predictions. (Count)
system.cpu.branchPred.indirectLookups           81351                       # Number of indirect predictor lookups. (Count)
system.cpu.branchPred.indirectHits              42757                       # Number of indirect target hits. (Count)
system.cpu.branchPred.indirectMisses            38594                       # Number of indirect misses. (Count)
system.cpu.branchPred.indirectMispredicted         2311                       # Number of mispredicted indirect branches. (Count)
system.cpu.commit.commitSquashedInsts         5216624                       # The number of squashed insts skipped by commit (Count)
system.cpu.commit.commitNonSpecStalls             796                       # The number of times commit has been forced to stall to communicate backwards (Count)
system.cpu.commit.branchMispredicts            190187                       # The number of times a branch was mispredicted (Count)
system.cpu.commit.numCommittedDist::samples      6768857                       # Number of insts commited each cycle (Count)
system.cpu.commit.numCommittedDist::mean     1.690248                       # Number of insts commited each cycle (Count)
system.cpu.commit.numCommittedDist::stdev     2.365451                       # Number of insts commited each cycle (Count)
system.cpu.commit.numCommittedDist::underflows            0      0.00%      0.00% # Number of insts commited each cycle (Count)
system.cpu.commit.numCommittedDist::0         2779480     41.06%     41.06% # Number of insts commited each cycle (Count)
system.cpu.commit.numCommittedDist::1         1765299     26.08%     67.14% # Number of insts commited each cycle (Count)
system.cpu.commit.numCommittedDist::2          875254     12.93%     80.07% # Number of insts commited each cycle (Count)
system.cpu.commit.numCommittedDist::3          210406      3.11%     83.18% # Number of insts commited each cycle (Count)
system.cpu.commit.numCommittedDist::4          275134      4.06%     87.25% # Number of insts commited each cycle (Count)
system.cpu.commit.numCommittedDist::5          154278      2.28%     89.53% # Number of insts commited each cycle (Count)
system.cpu.commit.numCommittedDist::6           83124      1.23%     90.75% # Number of insts commited each cycle (Count)
system.cpu.commit.numCommittedDist::7           83706      1.24%     91.99% # Number of insts commited each cycle (Count)
system.cpu.commit.numCommittedDist::8          542176      8.01%    100.00% # Number of insts commited each cycle (Count)
system.cpu.commit.numCommittedDist::overflows            0      0.00%    100.00% # Number of insts commited each cycle (Count)
system.cpu.commit.numCommittedDist::min_value            0                       # Number of insts commited each cycle (Count)
system.cpu.commit.numCommittedDist::max_value            8                       # Number of insts commited each cycle (Count)
system.cpu.commit.numCommittedDist::total      6768857                       # Number of insts commited each cycle (Count)
system.cpu.commit.instsCommitted             10000005                       # Number of instructions committed (Count)
system.cpu.commit.opsCommitted               11441045                       # Number of ops (including micro ops) committed (Count)
system.cpu.commit.memRefs                     4051968                       # Number of memory references committed (Count)
system.cpu.commit.loads                       2486410                       # Number of loads committed (Count)
system.cpu.commit.amos                              0                       # Number of atomic instructions committed (Count)
system.cpu.commit.membars                         390                       # Number of memory barriers committed (Count)
system.cpu.commit.branches                    1853544                       # Number of branches committed (Count)
system.cpu.commit.vectorInstructions                0                       # Number of committed Vector instructions. (Count)
system.cpu.commit.floating                          0                       # Number of committed floating point instructions. (Count)
system.cpu.commit.integer                    10013739                       # Number of committed integer instructions. (Count)
system.cpu.commit.functionCalls                199147                       # Number of function calls committed. (Count)
system.cpu.commit.committedInstType_0::No_OpClass            0      0.00%      0.00% # Class of committed instruction (Count)
system.cpu.commit.committedInstType_0::IntAlu      7341683     64.17%     64.17% # Class of committed instruction (Count)
system.cpu.commit.committedInstType_0::IntMult        47394      0.41%     64.58% # Class of committed instruction (Count)
system.cpu.commit.committedInstType_0::IntDiv            0      0.00%     64.58% # Class of committed instruction (Count)
system.cpu.commit.committedInstType_0::FloatAdd            0      0.00%     64.58% # Class of committed instruction (Count)
system.cpu.commit.committedInstType_0::FloatCmp            0      0.00%     64.58% # Class of committed instruction (Count)
system.cpu.commit.committedInstType_0::FloatCvt            0      0.00%     64.58% # Class of committed instruction (Count)
system.cpu.commit.committedInstType_0::FloatMult            0      0.00%     64.58% # Class of committed instruction (Count)
system.cpu.commit.committedInstType_0::FloatMultAcc            0      0.00%     64.58% # Class of committed instruction (Count)
system.cpu.commit.committedInstType_0::FloatDiv            0      0.00%     64.58% # Class of committed instruction (Count)
system.cpu.commit.committedInstType_0::FloatMisc            0      0.00%     64.58% # Class of committed instruction (Count)
system.cpu.commit.committedInstType_0::FloatSqrt            0      0.00%     64.58% # Class of committed instruction (Count)
system.cpu.commit.committedInstType_0::SimdAdd            0      0.00%     64.58% # Class of committed instruction (Count)
system.cpu.commit.committedInstType_0::SimdAddAcc            0      0.00%     64.58% # Class of committed instruction (Count)
system.cpu.commit.committedInstType_0::SimdAlu            0      0.00%     64.58% # Class of committed instruction (Count)
system.cpu.commit.committedInstType_0::SimdCmp            0      0.00%     64.58% # Class of committed instruction (Count)
system.cpu.commit.committedInstType_0::SimdCvt            0      0.00%     64.58% # Class of committed instruction (Count)
system.cpu.commit.committedInstType_0::SimdMisc            0      0.00%     64.58% # Class of committed instruction (Count)
system.cpu.commit.committedInstType_0::SimdMult            0      0.00%     64.58% # Class of committed instruction (Count)
system.cpu.commit.committedInstType_0::SimdMultAcc            0      0.00%     64.58% # Class of committed instruction (Count)
system.cpu.commit.committedInstType_0::SimdShift            0      0.00%     64.58% # Class of committed instruction (Count)
system.cpu.commit.committedInstType_0::SimdShiftAcc            0      0.00%     64.58% # Class of committed instruction (Count)
system.cpu.commit.committedInstType_0::SimdDiv            0      0.00%     64.58% # Class of committed instruction (Count)
system.cpu.commit.committedInstType_0::SimdSqrt            0      0.00%     64.58% # Class of committed instruction (Count)
system.cpu.commit.committedInstType_0::SimdFloatAdd            0      0.00%     64.58% # Class of committed instruction (Count)
system.cpu.commit.committedInstType_0::SimdFloatAlu            0      0.00%     64.58% # Class of committed instruction (Count)
system.cpu.commit.committedInstType_0::SimdFloatCmp            0      0.00%     64.58% # Class of committed instruction (Count)
system.cpu.commit.committedInstType_0::SimdFloatCvt            0      0.00%     64.58% # Class of committed instruction (Count)
system.cpu.commit.committedInstType_0::SimdFloatDiv            0      0.00%     64.58% # Class of committed instruction (Count)
system.cpu.commit.committedInstType_0::SimdFloatMisc            0      0.00%     64.58% # Class of committed instruction (Count)
system.cpu.commit.committedInstType_0::SimdFloatMult            0      0.00%     64.58% # Class of committed instruction (Count)
system.cpu.commit.committedInstType_0::SimdFloatMultAcc            0      0.00%     64.58% # Class of committed instruction (Count)
system.cpu.commit.committedInstType_0::SimdFloatSqrt            0      0.00%     64.58% # Class of committed instruction (Count)
system.cpu.commit.committedInstType_0::SimdReduceAdd            0      0.00%     64.58% # Class of committed instruction (Count)
system.cpu.commit.committedInstType_0::SimdReduceAlu            0      0.00%     64.58% # Class of committed instruction (Count)
system.cpu.commit.committedInstType_0::SimdReduceCmp            0      0.00%     64.58% # Class of committed instruction (Count)
system.cpu.commit.committedInstType_0::SimdFloatReduceAdd            0      0.00%     64.58% # Class of committed instruction (Count)
system.cpu.commit.committedInstType_0::SimdFloatReduceCmp            0      0.00%     64.58% # Class of committed instruction (Count)
system.cpu.commit.committedInstType_0::SimdAes            0      0.00%     64.58% # Class of committed instruction (Count)
system.cpu.commit.committedInstType_0::SimdAesMix            0      0.00%     64.58% # Class of committed instruction (Count)
system.cpu.commit.committedInstType_0::SimdSha1Hash            0      0.00%     64.58% # Class of committed instruction (Count)
system.cpu.commit.committedInstType_0::SimdSha1Hash2            0      0.00%     64.58% # Class of committed instruction (Count)
system.cpu.commit.committedInstType_0::SimdSha256Hash            0      0.00%     64.58% # Class of committed instruction (Count)
system.cpu.commit.committedInstType_0::SimdSha256Hash2            0      0.00%     64.58% # Class of committed instruction (Count)
system.cpu.commit.committedInstType_0::SimdShaSigma2            0      0.00%     64.58% # Class of committed instruction (Count)
system.cpu.commit.committedInstType_0::SimdShaSigma3            0      0.00%     64.58% # Class of committed instruction (Count)
system.cpu.commit.committedInstType_0::SimdPredAlu            0      0.00%     64.58% # Class of committed instruction (Count)
system.cpu.commit.committedInstType_0::MemRead      2486410     21.73%     86.32% # Class of committed instruction (Count)
system.cpu.commit.committedInstType_0::MemWrite      1565558     13.68%    100.00% # Class of committed instruction (Count)
system.cpu.commit.committedInstType_0::FloatMemRead            0      0.00%    100.00% # Class of committed instruction (Count)
system.cpu.commit.committedInstType_0::FloatMemWrite            0      0.00%    100.00% # Class of committed instruction (Count)
system.cpu.commit.committedInstType_0::IprAccess            0      0.00%    100.00% # Class of committed instruction (Count)
system.cpu.commit.committedInstType_0::InstPrefetch            0      0.00%    100.00% # Class of committed instruction (Count)
system.cpu.commit.committedInstType_0::total     11441045                       # Class of committed instruction (Count)
system.cpu.commit.commitEligibleSamples        542176                       # number cycles where commit BW limit reached (Cycle)
system.cpu.dcache.demandHits::cpu.data        4261033                       # number of demand (read+write) hits (Count)
system.cpu.dcache.demandHits::total           4261033                       # number of demand (read+write) hits (Count)
system.cpu.dcache.overallHits::cpu.data       4261033                       # number of overall hits (Count)
system.cpu.dcache.overallHits::total          4261033                       # number of overall hits (Count)
system.cpu.dcache.demandMisses::cpu.data        25538                       # number of demand (read+write) misses (Count)
system.cpu.dcache.demandMisses::total           25538                       # number of demand (read+write) misses (Count)
system.cpu.dcache.overallMisses::cpu.data        25538                       # number of overall misses (Count)
system.cpu.dcache.overallMisses::total          25538                       # number of overall misses (Count)
system.cpu.dcache.demandMissLatency::cpu.data   1313157490                       # number of demand (read+write) miss ticks (Tick)
system.cpu.dcache.demandMissLatency::total   1313157490                       # number of demand (read+write) miss ticks (Tick)
system.cpu.dcache.overallMissLatency::cpu.data   1313157490                       # number of overall miss ticks (Tick)
system.cpu.dcache.overallMissLatency::total   1313157490                       # number of overall miss ticks (Tick)
system.cpu.dcache.demandAccesses::cpu.data      4286571                       # number of demand (read+write) accesses (Count)
system.cpu.dcache.demandAccesses::total       4286571                       # number of demand (read+write) accesses (Count)
system.cpu.dcache.overallAccesses::cpu.data      4286571                       # number of overall (read+write) accesses (Count)
system.cpu.dcache.overallAccesses::total      4286571                       # number of overall (read+write) accesses (Count)
system.cpu.dcache.demandMissRate::cpu.data     0.005958                       # miss rate for demand accesses (Ratio)
system.cpu.dcache.demandMissRate::total      0.005958                       # miss rate for demand accesses (Ratio)
system.cpu.dcache.overallMissRate::cpu.data     0.005958                       # miss rate for overall accesses (Ratio)
system.cpu.dcache.overallMissRate::total     0.005958                       # miss rate for overall accesses (Ratio)
system.cpu.dcache.demandAvgMissLatency::cpu.data 51419.746652                       # average overall miss latency in ticks ((Tick/Count))
system.cpu.dcache.demandAvgMissLatency::total 51419.746652                       # average overall miss latency in ticks ((Tick/Count))
system.cpu.dcache.overallAvgMissLatency::cpu.data 51419.746652                       # average overall miss latency ((Tick/Count))
system.cpu.dcache.overallAvgMissLatency::total 51419.746652                       # average overall miss latency ((Tick/Count))
system.cpu.dcache.blockedCycles::no_mshrs         1213                       # number of cycles access was blocked (Cycle)
system.cpu.dcache.blockedCycles::no_targets          348                       # number of cycles access was blocked (Cycle)
system.cpu.dcache.blockedCauses::no_mshrs           44                       # number of times access was blocked (Count)
system.cpu.dcache.blockedCauses::no_targets            6                       # number of times access was blocked (Count)
system.cpu.dcache.avgBlocked::no_mshrs      27.568182                       # average number of cycles each access was blocked ((Cycle/Count))
system.cpu.dcache.avgBlocked::no_targets           58                       # average number of cycles each access was blocked ((Cycle/Count))
system.cpu.dcache.writebacks::writebacks         2287                       # number of writebacks (Count)
system.cpu.dcache.writebacks::total              2287                       # number of writebacks (Count)
system.cpu.dcache.demandMshrHits::cpu.data        21432                       # number of demand (read+write) MSHR hits (Count)
system.cpu.dcache.demandMshrHits::total         21432                       # number of demand (read+write) MSHR hits (Count)
system.cpu.dcache.overallMshrHits::cpu.data        21432                       # number of overall MSHR hits (Count)
system.cpu.dcache.overallMshrHits::total        21432                       # number of overall MSHR hits (Count)
system.cpu.dcache.demandMshrMisses::cpu.data         4106                       # number of demand (read+write) MSHR misses (Count)
system.cpu.dcache.demandMshrMisses::total         4106                       # number of demand (read+write) MSHR misses (Count)
system.cpu.dcache.overallMshrMisses::cpu.data         4106                       # number of overall MSHR misses (Count)
system.cpu.dcache.overallMshrMisses::total         4106                       # number of overall MSHR misses (Count)
system.cpu.dcache.demandMshrMissLatency::cpu.data    192485497                       # number of demand (read+write) MSHR miss ticks (Tick)
system.cpu.dcache.demandMshrMissLatency::total    192485497                       # number of demand (read+write) MSHR miss ticks (Tick)
system.cpu.dcache.overallMshrMissLatency::cpu.data    192485497                       # number of overall MSHR miss ticks (Tick)
system.cpu.dcache.overallMshrMissLatency::total    192485497                       # number of overall MSHR miss ticks (Tick)
system.cpu.dcache.demandMshrMissRate::cpu.data     0.000958                       # mshr miss ratio for demand accesses (Ratio)
system.cpu.dcache.demandMshrMissRate::total     0.000958                       # mshr miss ratio for demand accesses (Ratio)
system.cpu.dcache.overallMshrMissRate::cpu.data     0.000958                       # mshr miss ratio for overall accesses (Ratio)
system.cpu.dcache.overallMshrMissRate::total     0.000958                       # mshr miss ratio for overall accesses (Ratio)
system.cpu.dcache.demandAvgMshrMissLatency::cpu.data 46879.078665                       # average overall mshr miss latency ((Tick/Count))
system.cpu.dcache.demandAvgMshrMissLatency::total 46879.078665                       # average overall mshr miss latency ((Tick/Count))
system.cpu.dcache.overallAvgMshrMissLatency::cpu.data 46879.078665                       # average overall mshr miss latency ((Tick/Count))
system.cpu.dcache.overallAvgMshrMissLatency::total 46879.078665                       # average overall mshr miss latency ((Tick/Count))
system.cpu.dcache.replacements                   3588                       # number of replacements (Count)
system.cpu.dcache.LoadLockedReq.hits::cpu.data          385                       # number of LoadLockedReq hits (Count)
system.cpu.dcache.LoadLockedReq.hits::total          385                       # number of LoadLockedReq hits (Count)
system.cpu.dcache.LoadLockedReq.misses::cpu.data            8                       # number of LoadLockedReq misses (Count)
system.cpu.dcache.LoadLockedReq.misses::total            8                       # number of LoadLockedReq misses (Count)
system.cpu.dcache.LoadLockedReq.missLatency::cpu.data       315000                       # number of LoadLockedReq miss ticks (Tick)
system.cpu.dcache.LoadLockedReq.missLatency::total       315000                       # number of LoadLockedReq miss ticks (Tick)
system.cpu.dcache.LoadLockedReq.accesses::cpu.data          393                       # number of LoadLockedReq accesses(hits+misses) (Count)
system.cpu.dcache.LoadLockedReq.accesses::total          393                       # number of LoadLockedReq accesses(hits+misses) (Count)
system.cpu.dcache.LoadLockedReq.missRate::cpu.data     0.020356                       # miss rate for LoadLockedReq accesses (Ratio)
system.cpu.dcache.LoadLockedReq.missRate::total     0.020356                       # miss rate for LoadLockedReq accesses (Ratio)
system.cpu.dcache.LoadLockedReq.avgMissLatency::cpu.data        39375                       # average LoadLockedReq miss latency ((Tick/Count))
system.cpu.dcache.LoadLockedReq.avgMissLatency::total        39375                       # average LoadLockedReq miss latency ((Tick/Count))
system.cpu.dcache.LoadLockedReq.mshrHits::cpu.data            8                       # number of LoadLockedReq MSHR hits (Count)
system.cpu.dcache.LoadLockedReq.mshrHits::total            8                       # number of LoadLockedReq MSHR hits (Count)
system.cpu.dcache.ReadReq.hits::cpu.data      2746558                       # number of ReadReq hits (Count)
system.cpu.dcache.ReadReq.hits::total         2746558                       # number of ReadReq hits (Count)
system.cpu.dcache.ReadReq.misses::cpu.data         6394                       # number of ReadReq misses (Count)
system.cpu.dcache.ReadReq.misses::total          6394                       # number of ReadReq misses (Count)
system.cpu.dcache.ReadReq.missLatency::cpu.data    118880500                       # number of ReadReq miss ticks (Tick)
system.cpu.dcache.ReadReq.missLatency::total    118880500                       # number of ReadReq miss ticks (Tick)
system.cpu.dcache.ReadReq.accesses::cpu.data      2752952                       # number of ReadReq accesses(hits+misses) (Count)
system.cpu.dcache.ReadReq.accesses::total      2752952                       # number of ReadReq accesses(hits+misses) (Count)
system.cpu.dcache.ReadReq.missRate::cpu.data     0.002323                       # miss rate for ReadReq accesses (Ratio)
system.cpu.dcache.ReadReq.missRate::total     0.002323                       # miss rate for ReadReq accesses (Ratio)
system.cpu.dcache.ReadReq.avgMissLatency::cpu.data 18592.508602                       # average ReadReq miss latency ((Tick/Count))
system.cpu.dcache.ReadReq.avgMissLatency::total 18592.508602                       # average ReadReq miss latency ((Tick/Count))
system.cpu.dcache.ReadReq.mshrHits::cpu.data         4176                       # number of ReadReq MSHR hits (Count)
system.cpu.dcache.ReadReq.mshrHits::total         4176                       # number of ReadReq MSHR hits (Count)
system.cpu.dcache.ReadReq.mshrMisses::cpu.data         2218                       # number of ReadReq MSHR misses (Count)
system.cpu.dcache.ReadReq.mshrMisses::total         2218                       # number of ReadReq MSHR misses (Count)
system.cpu.dcache.ReadReq.mshrMissLatency::cpu.data     54774500                       # number of ReadReq MSHR miss ticks (Tick)
system.cpu.dcache.ReadReq.mshrMissLatency::total     54774500                       # number of ReadReq MSHR miss ticks (Tick)
system.cpu.dcache.ReadReq.mshrMissRate::cpu.data     0.000806                       # mshr miss rate for ReadReq accesses (Ratio)
system.cpu.dcache.ReadReq.mshrMissRate::total     0.000806                       # mshr miss rate for ReadReq accesses (Ratio)
system.cpu.dcache.ReadReq.avgMshrMissLatency::cpu.data 24695.446348                       # average ReadReq mshr miss latency ((Tick/Count))
system.cpu.dcache.ReadReq.avgMshrMissLatency::total 24695.446348                       # average ReadReq mshr miss latency ((Tick/Count))
system.cpu.dcache.StoreCondReq.hits::cpu.data          386                       # number of StoreCondReq hits (Count)
system.cpu.dcache.StoreCondReq.hits::total          386                       # number of StoreCondReq hits (Count)
system.cpu.dcache.StoreCondReq.accesses::cpu.data          386                       # number of StoreCondReq accesses(hits+misses) (Count)
system.cpu.dcache.StoreCondReq.accesses::total          386                       # number of StoreCondReq accesses(hits+misses) (Count)
system.cpu.dcache.WriteReq.hits::cpu.data      1514475                       # number of WriteReq hits (Count)
system.cpu.dcache.WriteReq.hits::total        1514475                       # number of WriteReq hits (Count)
system.cpu.dcache.WriteReq.misses::cpu.data        19144                       # number of WriteReq misses (Count)
system.cpu.dcache.WriteReq.misses::total        19144                       # number of WriteReq misses (Count)
system.cpu.dcache.WriteReq.missLatency::cpu.data   1194276990                       # number of WriteReq miss ticks (Tick)
system.cpu.dcache.WriteReq.missLatency::total   1194276990                       # number of WriteReq miss ticks (Tick)
system.cpu.dcache.WriteReq.accesses::cpu.data      1533619                       # number of WriteReq accesses(hits+misses) (Count)
system.cpu.dcache.WriteReq.accesses::total      1533619                       # number of WriteReq accesses(hits+misses) (Count)
system.cpu.dcache.WriteReq.missRate::cpu.data     0.012483                       # miss rate for WriteReq accesses (Ratio)
system.cpu.dcache.WriteReq.missRate::total     0.012483                       # miss rate for WriteReq accesses (Ratio)
system.cpu.dcache.WriteReq.avgMissLatency::cpu.data 62383.879545                       # average WriteReq miss latency ((Tick/Count))
system.cpu.dcache.WriteReq.avgMissLatency::total 62383.879545                       # average WriteReq miss latency ((Tick/Count))
system.cpu.dcache.WriteReq.mshrHits::cpu.data        17256                       # number of WriteReq MSHR hits (Count)
system.cpu.dcache.WriteReq.mshrHits::total        17256                       # number of WriteReq MSHR hits (Count)
system.cpu.dcache.WriteReq.mshrMisses::cpu.data         1888                       # number of WriteReq MSHR misses (Count)
system.cpu.dcache.WriteReq.mshrMisses::total         1888                       # number of WriteReq MSHR misses (Count)
system.cpu.dcache.WriteReq.mshrMissLatency::cpu.data    137710997                       # number of WriteReq MSHR miss ticks (Tick)
system.cpu.dcache.WriteReq.mshrMissLatency::total    137710997                       # number of WriteReq MSHR miss ticks (Tick)
system.cpu.dcache.WriteReq.mshrMissRate::cpu.data     0.001231                       # mshr miss rate for WriteReq accesses (Ratio)
system.cpu.dcache.WriteReq.mshrMissRate::total     0.001231                       # mshr miss rate for WriteReq accesses (Ratio)
system.cpu.dcache.WriteReq.avgMshrMissLatency::cpu.data 72940.146716                       # average WriteReq mshr miss latency ((Tick/Count))
system.cpu.dcache.WriteReq.avgMshrMissLatency::total 72940.146716                       # average WriteReq mshr miss latency ((Tick/Count))
system.cpu.dcache.power_state.pwrStateResidencyTicks::UNDEFINED   3811842000                       # Cumulative time (in ticks) in various power states (Tick)
system.cpu.dcache.tags.tagsInUse           496.254038                       # Average ticks per tags in use ((Tick/Count))
system.cpu.dcache.tags.totalRefs              4265927                       # Total number of references to valid blocks. (Count)
system.cpu.dcache.tags.sampledRefs               4100                       # Sample count of references to valid blocks. (Count)
system.cpu.dcache.tags.avgRefs            1040.470000                       # Average number of references to valid blocks. ((Count/Count))
system.cpu.dcache.tags.warmupTick              148500                       # The tick when the warmup percentage was hit. (Tick)
system.cpu.dcache.tags.occupancies::cpu.data   496.254038                       # Average occupied blocks per tick, per requestor ((Count/Tick))
system.cpu.dcache.tags.avgOccs::cpu.data     0.969246                       # Average percentage of cache occupancy ((Ratio/Tick))
system.cpu.dcache.tags.avgOccs::total        0.969246                       # Average percentage of cache occupancy ((Ratio/Tick))
system.cpu.dcache.tags.occupanciesTaskId::1024          512                       # Occupied blocks per task id (Count)
system.cpu.dcache.tags.ageTaskId_1024::0            5                       # Occupied blocks per task id, per block age (Count)
system.cpu.dcache.tags.ageTaskId_1024::1           43                       # Occupied blocks per task id, per block age (Count)
system.cpu.dcache.tags.ageTaskId_1024::2          464                       # Occupied blocks per task id, per block age (Count)
system.cpu.dcache.tags.ratioOccsTaskId::1024            1                       # Ratio of occupied blocks and all blocks, per task id (Ratio)
system.cpu.dcache.tags.tagAccesses            8578800                       # Number of tag accesses (Count)
system.cpu.dcache.tags.dataAccesses           8578800                       # Number of data accesses (Count)
system.cpu.dcache.tags.power_state.pwrStateResidencyTicks::UNDEFINED   3811842000                       # Cumulative time (in ticks) in various power states (Tick)
system.cpu.decode.idleCycles                  2967727                       # Number of cycles decode is idle (Cycle)
system.cpu.decode.blockedCycles               1214282                       # Number of cycles decode is blocked (Cycle)
system.cpu.decode.runCycles                   2888229                       # Number of cycles decode is running (Cycle)
system.cpu.decode.unblockCycles                273962                       # Number of cycles decode is unblocking (Cycle)
system.cpu.decode.squashCycles                 190694                       # Number of cycles decode is squashing (Cycle)
system.cpu.decode.branchResolved               921796                       # Number of times decode resolved a branch (Count)
system.cpu.decode.branchMispred                 30280                       # Number of times decode detected a branch misprediction (Count)
system.cpu.decode.decodedInsts               18418146                       # Number of instructions handled by decode (Count)
system.cpu.decode.squashedInsts                  7348                       # Number of squashed instructions handled by decode (Count)
system.cpu.fetch.icacheStallCycles            3583625                       # Number of cycles fetch is stalled on an Icache miss (Cycle)
system.cpu.fetch.insts                       16911279                       # Number of instructions fetch has processed (Count)
system.cpu.fetch.branches                     3216573                       # Number of branches that fetch encountered (Count)
system.cpu.fetch.predictedBranches            1340120                       # Number of branches that fetch has predicted taken (Count)
system.cpu.fetch.cycles                       3728973                       # Number of cycles fetch has run and was not squashing or blocked (Cycle)
system.cpu.fetch.squashCycles                  440610                       # Number of cycles fetch has spent squashing (Cycle)
system.cpu.fetch.miscStallCycles                  437                       # Number of cycles fetch has spent waiting on interrupts, or bad addresses, or out of MSHRs (Cycle)
system.cpu.fetch.pendingTrapStallCycles          1505                       # Number of stall cycles due to pending traps (Cycle)
system.cpu.fetch.icacheWaitRetryStallCycles           49                       # Number of stall cycles due to full MSHR (Cycle)
system.cpu.fetch.cacheLines                   2553474                       # Number of cache lines fetched (Count)
system.cpu.fetch.icacheSquashes                103914                       # Number of outstanding Icache misses that were squashed (Count)
system.cpu.fetch.nisnDist::samples            7534894                       # Number of instructions fetched each cycle (Total) (Count)
system.cpu.fetch.nisnDist::mean              2.601225                       # Number of instructions fetched each cycle (Total) (Count)
system.cpu.fetch.nisnDist::stdev             3.316851                       # Number of instructions fetched each cycle (Total) (Count)
system.cpu.fetch.nisnDist::underflows               0      0.00%      0.00% # Number of instructions fetched each cycle (Total) (Count)
system.cpu.fetch.nisnDist::0                  4013082     53.26%     53.26% # Number of instructions fetched each cycle (Total) (Count)
system.cpu.fetch.nisnDist::1                   344439      4.57%     57.83% # Number of instructions fetched each cycle (Total) (Count)
system.cpu.fetch.nisnDist::2                   448265      5.95%     63.78% # Number of instructions fetched each cycle (Total) (Count)
system.cpu.fetch.nisnDist::3                   159692      2.12%     65.90% # Number of instructions fetched each cycle (Total) (Count)
system.cpu.fetch.nisnDist::4                   332560      4.41%     70.31% # Number of instructions fetched each cycle (Total) (Count)
system.cpu.fetch.nisnDist::5                   274696      3.65%     73.96% # Number of instructions fetched each cycle (Total) (Count)
system.cpu.fetch.nisnDist::6                   177001      2.35%     76.31% # Number of instructions fetched each cycle (Total) (Count)
system.cpu.fetch.nisnDist::7                   167086      2.22%     78.53% # Number of instructions fetched each cycle (Total) (Count)
system.cpu.fetch.nisnDist::8                  1618073     21.47%    100.00% # Number of instructions fetched each cycle (Total) (Count)
system.cpu.fetch.nisnDist::overflows                0      0.00%    100.00% # Number of instructions fetched each cycle (Total) (Count)
system.cpu.fetch.nisnDist::min_value                0                       # Number of instructions fetched each cycle (Total) (Count)
system.cpu.fetch.nisnDist::max_value                8                       # Number of instructions fetched each cycle (Total) (Count)
system.cpu.fetch.nisnDist::total              7534894                       # Number of instructions fetched each cycle (Total) (Count)
system.cpu.fetch.branchRate                  0.421918                       # Number of branch fetches per cycle (Ratio)
system.cpu.fetch.rate                        2.218255                       # Number of inst fetches per cycle ((Count/Cycle))
system.cpu.icache.demandHits::cpu.inst        2486430                       # number of demand (read+write) hits (Count)
system.cpu.icache.demandHits::total           2486430                       # number of demand (read+write) hits (Count)
system.cpu.icache.overallHits::cpu.inst       2486430                       # number of overall hits (Count)
system.cpu.icache.overallHits::total          2486430                       # number of overall hits (Count)
system.cpu.icache.demandMisses::cpu.inst        67043                       # number of demand (read+write) misses (Count)
system.cpu.icache.demandMisses::total           67043                       # number of demand (read+write) misses (Count)
system.cpu.icache.overallMisses::cpu.inst        67043                       # number of overall misses (Count)
system.cpu.icache.overallMisses::total          67043                       # number of overall misses (Count)
system.cpu.icache.demandMissLatency::cpu.inst    925422500                       # number of demand (read+write) miss ticks (Tick)
system.cpu.icache.demandMissLatency::total    925422500                       # number of demand (read+write) miss ticks (Tick)
system.cpu.icache.overallMissLatency::cpu.inst    925422500                       # number of overall miss ticks (Tick)
system.cpu.icache.overallMissLatency::total    925422500                       # number of overall miss ticks (Tick)
system.cpu.icache.demandAccesses::cpu.inst      2553473                       # number of demand (read+write) accesses (Count)
system.cpu.icache.demandAccesses::total       2553473                       # number of demand (read+write) accesses (Count)
system.cpu.icache.overallAccesses::cpu.inst      2553473                       # number of overall (read+write) accesses (Count)
system.cpu.icache.overallAccesses::total      2553473                       # number of overall (read+write) accesses (Count)
system.cpu.icache.demandMissRate::cpu.inst     0.026256                       # miss rate for demand accesses (Ratio)
system.cpu.icache.demandMissRate::total      0.026256                       # miss rate for demand accesses (Ratio)
system.cpu.icache.overallMissRate::cpu.inst     0.026256                       # miss rate for overall accesses (Ratio)
system.cpu.icache.overallMissRate::total     0.026256                       # miss rate for overall accesses (Ratio)
system.cpu.icache.demandAvgMissLatency::cpu.inst 13803.417210                       # average overall miss latency in ticks ((Tick/Count))
system.cpu.icache.demandAvgMissLatency::total 13803.417210                       # average overall miss latency in ticks ((Tick/Count))
system.cpu.icache.overallAvgMissLatency::cpu.inst 13803.417210                       # average overall miss latency ((Tick/Count))
system.cpu.icache.overallAvgMissLatency::total 13803.417210                       # average overall miss latency ((Tick/Count))
system.cpu.icache.blockedCycles::no_mshrs         1736                       # number of cycles access was blocked (Cycle)
system.cpu.icache.blockedCycles::no_targets            0                       # number of cycles access was blocked (Cycle)
system.cpu.icache.blockedCauses::no_mshrs           18                       # number of times access was blocked (Count)
system.cpu.icache.blockedCauses::no_targets            0                       # number of times access was blocked (Count)
system.cpu.icache.avgBlocked::no_mshrs      96.444444                       # average number of cycles each access was blocked ((Cycle/Count))
system.cpu.icache.avgBlocked::no_targets          nan                       # average number of cycles each access was blocked ((Cycle/Count))
system.cpu.icache.writebacks::writebacks            1                       # number of writebacks (Count)
system.cpu.icache.writebacks::total                 1                       # number of writebacks (Count)
system.cpu.icache.demandMshrHits::cpu.inst         6269                       # number of demand (read+write) MSHR hits (Count)
system.cpu.icache.demandMshrHits::total          6269                       # number of demand (read+write) MSHR hits (Count)
system.cpu.icache.overallMshrHits::cpu.inst         6269                       # number of overall MSHR hits (Count)
system.cpu.icache.overallMshrHits::total         6269                       # number of overall MSHR hits (Count)
system.cpu.icache.demandMshrMisses::cpu.inst        60774                       # number of demand (read+write) MSHR misses (Count)
system.cpu.icache.demandMshrMisses::total        60774                       # number of demand (read+write) MSHR misses (Count)
system.cpu.icache.overallMshrMisses::cpu.inst        60774                       # number of overall MSHR misses (Count)
system.cpu.icache.overallMshrMisses::total        60774                       # number of overall MSHR misses (Count)
system.cpu.icache.demandMshrMissLatency::cpu.inst    813234000                       # number of demand (read+write) MSHR miss ticks (Tick)
system.cpu.icache.demandMshrMissLatency::total    813234000                       # number of demand (read+write) MSHR miss ticks (Tick)
system.cpu.icache.overallMshrMissLatency::cpu.inst    813234000                       # number of overall MSHR miss ticks (Tick)
system.cpu.icache.overallMshrMissLatency::total    813234000                       # number of overall MSHR miss ticks (Tick)
system.cpu.icache.demandMshrMissRate::cpu.inst     0.023801                       # mshr miss ratio for demand accesses (Ratio)
system.cpu.icache.demandMshrMissRate::total     0.023801                       # mshr miss ratio for demand accesses (Ratio)
system.cpu.icache.overallMshrMissRate::cpu.inst     0.023801                       # mshr miss ratio for overall accesses (Ratio)
system.cpu.icache.overallMshrMissRate::total     0.023801                       # mshr miss ratio for overall accesses (Ratio)
system.cpu.icache.demandAvgMshrMissLatency::cpu.inst 13381.281469                       # average overall mshr miss latency ((Tick/Count))
system.cpu.icache.demandAvgMshrMissLatency::total 13381.281469                       # average overall mshr miss latency ((Tick/Count))
system.cpu.icache.overallAvgMshrMissLatency::cpu.inst 13381.281469                       # average overall mshr miss latency ((Tick/Count))
system.cpu.icache.overallAvgMshrMissLatency::total 13381.281469                       # average overall mshr miss latency ((Tick/Count))
system.cpu.icache.replacements                  60265                       # number of replacements (Count)
system.cpu.icache.ReadReq.hits::cpu.inst      2486430                       # number of ReadReq hits (Count)
system.cpu.icache.ReadReq.hits::total         2486430                       # number of ReadReq hits (Count)
system.cpu.icache.ReadReq.misses::cpu.inst        67043                       # number of ReadReq misses (Count)
system.cpu.icache.ReadReq.misses::total         67043                       # number of ReadReq misses (Count)
system.cpu.icache.ReadReq.missLatency::cpu.inst    925422500                       # number of ReadReq miss ticks (Tick)
system.cpu.icache.ReadReq.missLatency::total    925422500                       # number of ReadReq miss ticks (Tick)
system.cpu.icache.ReadReq.accesses::cpu.inst      2553473                       # number of ReadReq accesses(hits+misses) (Count)
system.cpu.icache.ReadReq.accesses::total      2553473                       # number of ReadReq accesses(hits+misses) (Count)
system.cpu.icache.ReadReq.missRate::cpu.inst     0.026256                       # miss rate for ReadReq accesses (Ratio)
system.cpu.icache.ReadReq.missRate::total     0.026256                       # miss rate for ReadReq accesses (Ratio)
system.cpu.icache.ReadReq.avgMissLatency::cpu.inst 13803.417210                       # average ReadReq miss latency ((Tick/Count))
system.cpu.icache.ReadReq.avgMissLatency::total 13803.417210                       # average ReadReq miss latency ((Tick/Count))
system.cpu.icache.ReadReq.mshrHits::cpu.inst         6269                       # number of ReadReq MSHR hits (Count)
system.cpu.icache.ReadReq.mshrHits::total         6269                       # number of ReadReq MSHR hits (Count)
system.cpu.icache.ReadReq.mshrMisses::cpu.inst        60774                       # number of ReadReq MSHR misses (Count)
system.cpu.icache.ReadReq.mshrMisses::total        60774                       # number of ReadReq MSHR misses (Count)
system.cpu.icache.ReadReq.mshrMissLatency::cpu.inst    813234000                       # number of ReadReq MSHR miss ticks (Tick)
system.cpu.icache.ReadReq.mshrMissLatency::total    813234000                       # number of ReadReq MSHR miss ticks (Tick)
system.cpu.icache.ReadReq.mshrMissRate::cpu.inst     0.023801                       # mshr miss rate for ReadReq accesses (Ratio)
system.cpu.icache.ReadReq.mshrMissRate::total     0.023801                       # mshr miss rate for ReadReq accesses (Ratio)
system.cpu.icache.ReadReq.avgMshrMissLatency::cpu.inst 13381.281469                       # average ReadReq mshr miss latency ((Tick/Count))
system.cpu.icache.ReadReq.avgMshrMissLatency::total 13381.281469                       # average ReadReq mshr miss latency ((Tick/Count))
system.cpu.icache.power_state.pwrStateResidencyTicks::UNDEFINED   3811842000                       # Cumulative time (in ticks) in various power states (Tick)
system.cpu.icache.tags.tagsInUse           501.333753                       # Average ticks per tags in use ((Tick/Count))
system.cpu.icache.tags.totalRefs              2547204                       # Total number of references to valid blocks. (Count)
system.cpu.icache.tags.sampledRefs              60774                       # Sample count of references to valid blocks. (Count)
system.cpu.icache.tags.avgRefs              41.912726                       # Average number of references to valid blocks. ((Count/Count))
system.cpu.icache.tags.warmupTick               81500                       # The tick when the warmup percentage was hit. (Tick)
system.cpu.icache.tags.occupancies::cpu.inst   501.333753                       # Average occupied blocks per tick, per requestor ((Count/Tick))
system.cpu.icache.tags.avgOccs::cpu.inst     0.979167                       # Average percentage of cache occupancy ((Ratio/Tick))
system.cpu.icache.tags.avgOccs::total        0.979167                       # Average percentage of cache occupancy ((Ratio/Tick))
system.cpu.icache.tags.occupanciesTaskId::1024          504                       # Occupied blocks per task id (Count)
system.cpu.icache.tags.ageTaskId_1024::0           10                       # Occupied blocks per task id, per block age (Count)
system.cpu.icache.tags.ageTaskId_1024::1            4                       # Occupied blocks per task id, per block age (Count)
system.cpu.icache.tags.ageTaskId_1024::2           21                       # Occupied blocks per task id, per block age (Count)
system.cpu.icache.tags.ageTaskId_1024::3          469                       # Occupied blocks per task id, per block age (Count)
system.cpu.icache.tags.ratioOccsTaskId::1024     0.984375                       # Ratio of occupied blocks and all blocks, per task id (Ratio)
system.cpu.icache.tags.tagAccesses            5167720                       # Number of tag accesses (Count)
system.cpu.icache.tags.dataAccesses           5167720                       # Number of data accesses (Count)
system.cpu.icache.tags.power_state.pwrStateResidencyTicks::UNDEFINED   3811842000                       # Cumulative time (in ticks) in various power states (Tick)
system.cpu.iew.idleCycles                           0                       # Number of cycles IEW is idle (Cycle)
system.cpu.iew.squashCycles                    190694                       # Number of cycles IEW is squashing (Cycle)
system.cpu.iew.blockCycles                     584572                       # Number of cycles IEW is blocking (Cycle)
system.cpu.iew.unblockCycles                    20359                       # Number of cycles IEW is unblocking (Cycle)
system.cpu.iew.dispatchedInsts               16658930                       # Number of instructions dispatched to IQ (Count)
system.cpu.iew.dispSquashedInsts                39357                       # Number of squashed instructions skipped by dispatch (Count)
system.cpu.iew.dispLoadInsts                  3726651                       # Number of dispatched load instructions (Count)
system.cpu.iew.dispStoreInsts                 2316741                       # Number of dispatched store instructions (Count)
system.cpu.iew.dispNonSpecInsts                   905                       # Number of dispatched non-speculative instructions (Count)
system.cpu.iew.iqFullEvents                       527                       # Number of times the IQ has become full, causing a stall (Count)
system.cpu.iew.lsqFullEvents                    19726                       # Number of times the LSQ has become full, causing a stall (Count)
system.cpu.iew.memOrderViolationEvents            654                       # Number of memory order violations (Count)
system.cpu.iew.predictedTakenIncorrect          70489                       # Number of branches that were predicted taken incorrectly (Count)
system.cpu.iew.predictedNotTakenIncorrect       140942                       # Number of branches that were predicted not taken incorrectly (Count)
system.cpu.iew.branchMispredicts               211431                       # Number of branch mispredicts detected at execute (Count)
system.cpu.iew.instsToCommit                 13791708                       # Cumulative count of insts sent to commit (Count)
system.cpu.iew.writebackCount                13714277                       # Cumulative count of insts written-back (Count)
system.cpu.iew.producerInst                   7941517                       # Number of instructions producing a value (Count)
system.cpu.iew.consumerInst                  13917710                       # Number of instructions consuming a value (Count)
system.cpu.iew.wbRate                        1.798904                       # Insts written-back per cycle ((Count/Cycle))
system.cpu.iew.wbFanout                      0.570605                       # Average fanout of values written-back ((Count/Count))
system.cpu.lsq0.forwLoads                      315680                       # Number of loads that had data forwarded from stores (Count)
system.cpu.lsq0.squashedLoads                 1240226                       # Number of loads squashed (Count)
system.cpu.lsq0.ignoredResponses                 4523                       # Number of memory responses ignored because the instruction is squashed (Count)
system.cpu.lsq0.memOrderViolation                 654                       # Number of memory ordering violations (Count)
system.cpu.lsq0.squashedStores                 751179                       # Number of stores squashed (Count)
system.cpu.lsq0.rescheduledLoads               190149                       # Number of loads that were rescheduled (Count)
system.cpu.lsq0.blockedByCache                     37                       # Number of times an access to memory failed due to the cache being blocked (Count)
system.cpu.lsq0.loadToUse::samples            2486408                       # Distribution of cycle latency between the first time a load is issued and its completion (Unspecified)
system.cpu.lsq0.loadToUse::mean              3.639616                       # Distribution of cycle latency between the first time a load is issued and its completion (Unspecified)
system.cpu.lsq0.loadToUse::stdev             3.656468                       # Distribution of cycle latency between the first time a load is issued and its completion (Unspecified)
system.cpu.lsq0.loadToUse::0-9                2434373     97.91%     97.91% # Distribution of cycle latency between the first time a load is issued and its completion (Unspecified)
system.cpu.lsq0.loadToUse::10-19                27096      1.09%     99.00% # Distribution of cycle latency between the first time a load is issued and its completion (Unspecified)
system.cpu.lsq0.loadToUse::20-29                23222      0.93%     99.93% # Distribution of cycle latency between the first time a load is issued and its completion (Unspecified)
system.cpu.lsq0.loadToUse::30-39                  690      0.03%     99.96% # Distribution of cycle latency between the first time a load is issued and its completion (Unspecified)
system.cpu.lsq0.loadToUse::40-49                  240      0.01%     99.97% # Distribution of cycle latency between the first time a load is issued and its completion (Unspecified)
system.cpu.lsq0.loadToUse::50-59                  129      0.01%     99.97% # Distribution of cycle latency between the first time a load is issued and its completion (Unspecified)
system.cpu.lsq0.loadToUse::60-69                   17      0.00%     99.97% # Distribution of cycle latency between the first time a load is issued and its completion (Unspecified)
system.cpu.lsq0.loadToUse::70-79                    7      0.00%     99.97% # Distribution of cycle latency between the first time a load is issued and its completion (Unspecified)
system.cpu.lsq0.loadToUse::80-89                   19      0.00%     99.98% # Distribution of cycle latency between the first time a load is issued and its completion (Unspecified)
system.cpu.lsq0.loadToUse::90-99                    7      0.00%     99.98% # Distribution of cycle latency between the first time a load is issued and its completion (Unspecified)
system.cpu.lsq0.loadToUse::100-109                  7      0.00%     99.98% # Distribution of cycle latency between the first time a load is issued and its completion (Unspecified)
system.cpu.lsq0.loadToUse::110-119                 16      0.00%     99.98% # Distribution of cycle latency between the first time a load is issued and its completion (Unspecified)
system.cpu.lsq0.loadToUse::120-129                 37      0.00%     99.98% # Distribution of cycle latency between the first time a load is issued and its completion (Unspecified)
system.cpu.lsq0.loadToUse::130-139                242      0.01%     99.99% # Distribution of cycle latency between the first time a load is issued and its completion (Unspecified)
system.cpu.lsq0.loadToUse::140-149                 51      0.00%     99.99% # Distribution of cycle latency between the first time a load is issued and its completion (Unspecified)
system.cpu.lsq0.loadToUse::150-159                 28      0.00%     99.99% # Distribution of cycle latency between the first time a load is issued and its completion (Unspecified)
system.cpu.lsq0.loadToUse::160-169                128      0.01%    100.00% # Distribution of cycle latency between the first time a load is issued and its completion (Unspecified)
system.cpu.lsq0.loadToUse::170-179                 12      0.00%    100.00% # Distribution of cycle latency between the first time a load is issued and its completion (Unspecified)
system.cpu.lsq0.loadToUse::180-189                 42      0.00%    100.00% # Distribution of cycle latency between the first time a load is issued and its completion (Unspecified)
[...]
system.mem_ctrl.dram.perBankRdBursts::6           137                       # Per bank write bursts (Count)
system.mem_ctrl.dram.perBankRdBursts::7           162                       # Per bank write bursts (Count)
system.mem_ctrl.dram.perBankRdBursts::8           184                       # Per bank write bursts (Count)
system.mem_ctrl.dram.perBankRdBursts::9           189                       # Per bank write bursts (Count)
system.mem_ctrl.dram.perBankRdBursts::10          184                       # Per bank write bursts (Count)
system.mem_ctrl.dram.perBankRdBursts::11           86                       # Per bank write bursts (Count)
system.mem_ctrl.dram.perBankRdBursts::12          145                       # Per bank write bursts (Count)
system.mem_ctrl.dram.perBankRdBursts::13          130                       # Per bank write bursts (Count)
system.mem_ctrl.dram.perBankRdBursts::14          151                       # Per bank write bursts (Count)
system.mem_ctrl.dram.perBankRdBursts::15          171                       # Per bank write bursts (Count)
system.mem_ctrl.dram.perBankRdBursts::16           30                       # Per bank write bursts (Count)
system.mem_ctrl.dram.perBankRdBursts::17           35                       # Per bank write bursts (Count)
system.mem_ctrl.dram.perBankRdBursts::18           69                       # Per bank write bursts (Count)
system.mem_ctrl.dram.perBankRdBursts::19           18                       # Per bank write bursts (Count)
system.mem_ctrl.dram.perBankRdBursts::20           17                       # Per bank write bursts (Count)
system.mem_ctrl.dram.perBankRdBursts::21           68                       # Per bank write bursts (Count)
system.mem_ctrl.dram.perBankRdBursts::22           33                       # Per bank write bursts (Count)
system.mem_ctrl.dram.perBankRdBursts::23           18                       # Per bank write bursts (Count)
system.mem_ctrl.dram.perBankRdBursts::24            4                       # Per bank write bursts (Count)
system.mem_ctrl.dram.perBankRdBursts::25           80                       # Per bank write bursts (Count)
system.mem_ctrl.dram.perBankRdBursts::26           91                       # Per bank write bursts (Count)
system.mem_ctrl.dram.perBankRdBursts::27           19                       # Per bank write bursts (Count)
system.mem_ctrl.dram.perBankRdBursts::28           31                       # Per bank write bursts (Count)
system.mem_ctrl.dram.perBankRdBursts::29           80                       # Per bank write bursts (Count)
system.mem_ctrl.dram.perBankRdBursts::30           95                       # Per bank write bursts (Count)
system.mem_ctrl.dram.perBankRdBursts::31          125                       # Per bank write bursts (Count)
system.mem_ctrl.dram.perBankWrBursts::0             0                       # Per bank write bursts (Count)
system.mem_ctrl.dram.perBankWrBursts::1             0                       # Per bank write bursts (Count)
system.mem_ctrl.dram.perBankWrBursts::2             0                       # Per bank write bursts (Count)
system.mem_ctrl.dram.perBankWrBursts::3             0                       # Per bank write bursts (Count)
system.mem_ctrl.dram.perBankWrBursts::4             0                       # Per bank write bursts (Count)
system.mem_ctrl.dram.perBankWrBursts::5             0                       # Per bank write bursts (Count)
system.mem_ctrl.dram.perBankWrBursts::6             0                       # Per bank write bursts (Count)
system.mem_ctrl.dram.perBankWrBursts::7             0                       # Per bank write bursts (Count)
system.mem_ctrl.dram.perBankWrBursts::8             0                       # Per bank write bursts (Count)
system.mem_ctrl.dram.perBankWrBursts::9             0                       # Per bank write bursts (Count)
system.mem_ctrl.dram.perBankWrBursts::10            0                       # Per bank write bursts (Count)
system.mem_ctrl.dram.perBankWrBursts::11            0                       # Per bank write bursts (Count)
system.mem_ctrl.dram.perBankWrBursts::12            0                       # Per bank write bursts (Count)
system.mem_ctrl.dram.perBankWrBursts::13            0                       # Per bank write bursts (Count)
system.mem_ctrl.dram.perBankWrBursts::14            0                       # Per bank write bursts (Count)
system.mem_ctrl.dram.perBankWrBursts::15            0                       # Per bank write bursts (Count)
system.mem_ctrl.dram.perBankWrBursts::16            0                       # Per bank write bursts (Count)
system.mem_ctrl.dram.perBankWrBursts::17            0                       # Per bank write bursts (Count)
system.mem_ctrl.dram.perBankWrBursts::18            0                       # Per bank write bursts (Count)
system.mem_ctrl.dram.perBankWrBursts::19            0                       # Per bank write bursts (Count)
system.mem_ctrl.dram.perBankWrBursts::20            0                       # Per bank write bursts (Count)
system.mem_ctrl.dram.perBankWrBursts::21            0                       # Per bank write bursts (Count)
system.mem_ctrl.dram.perBankWrBursts::22            0                       # Per bank write bursts (Count)
system.mem_ctrl.dram.perBankWrBursts::23            0                       # Per bank write bursts (Count)
system.mem_ctrl.dram.perBankWrBursts::24            0                       # Per bank write bursts (Count)
system.mem_ctrl.dram.perBankWrBursts::25            0                       # Per bank write bursts (Count)
system.mem_ctrl.dram.perBankWrBursts::26            0                       # Per bank write bursts (Count)
system.mem_ctrl.dram.perBankWrBursts::27            0                       # Per bank write bursts (Count)
system.mem_ctrl.dram.perBankWrBursts::28            0                       # Per bank write bursts (Count)
system.mem_ctrl.dram.perBankWrBursts::29            0                       # Per bank write bursts (Count)
system.mem_ctrl.dram.perBankWrBursts::30            0                       # Per bank write bursts (Count)
system.mem_ctrl.dram.perBankWrBursts::31            0                       # Per bank write bursts (Count)
system.mem_ctrl.dram.totQLat                 36598024                       # Total ticks spent queuing (Tick)
system.mem_ctrl.dram.totBusLat               11288816                       # Total ticks spent in databus transfers (Tick)
system.mem_ctrl.dram.totMemAccLat            95860920                       # Total ticks spent from burst creation until serviced by the DRAM (Tick)
system.mem_ctrl.dram.avgQLat                 10802.25                       # Average queueing delay per DRAM burst ((Tick/Count))
system.mem_ctrl.dram.avgBusLat                3332.00                       # Average bus latency per DRAM burst ((Tick/Count))
system.mem_ctrl.dram.avgMemAccLat            28294.25                       # Average memory access latency per DRAM burst ((Tick/Count))
system.mem_ctrl.dram.readRowHits                 2409                       # Number of row buffer hits during reads (Count)
system.mem_ctrl.dram.writeRowHits                   0                       # Number of row buffer hits during writes (Count)
system.mem_ctrl.dram.readRowHitRate             71.10                       # Row buffer hit rate for reads (Ratio)
system.mem_ctrl.dram.writeRowHitRate              nan                       # Row buffer hit rate for writes (Ratio)
system.mem_ctrl.dram.bytesPerActivate::samples          978                       # Bytes accessed per row activation (Byte)
system.mem_ctrl.dram.bytesPerActivate::mean   221.644172                       # Bytes accessed per row activation (Byte)
system.mem_ctrl.dram.bytesPerActivate::gmean   128.849652                       # Bytes accessed per row activation (Byte)
system.mem_ctrl.dram.bytesPerActivate::stdev   287.788298                       # Bytes accessed per row activation (Byte)
system.mem_ctrl.dram.bytesPerActivate::0-127          510     52.15%     52.15% # Bytes accessed per row activation (Byte)
system.mem_ctrl.dram.bytesPerActivate::128-255          244     24.95%     77.10% # Bytes accessed per row activation (Byte)
system.mem_ctrl.dram.bytesPerActivate::256-383           52      5.32%     82.41% # Bytes accessed per row activation (Byte)
system.mem_ctrl.dram.bytesPerActivate::384-511           33      3.37%     85.79% # Bytes accessed per row activation (Byte)
system.mem_ctrl.dram.bytesPerActivate::512-639           21      2.15%     87.93% # Bytes accessed per row activation (Byte)
system.mem_ctrl.dram.bytesPerActivate::640-767           21      2.15%     90.08% # Bytes accessed per row activation (Byte)
system.mem_ctrl.dram.bytesPerActivate::768-895            7      0.72%     90.80% # Bytes accessed per row activation (Byte)
system.mem_ctrl.dram.bytesPerActivate::896-1023           11      1.12%     91.92% # Bytes accessed per row activation (Byte)
system.mem_ctrl.dram.bytesPerActivate::1024-1151           79      8.08%    100.00% # Bytes accessed per row activation (Byte)
system.mem_ctrl.dram.bytesPerActivate::total          978                       # Bytes accessed per row activation (Byte)
system.mem_ctrl.dram.bytesRead                 216832                       # Total bytes read (Byte)
system.mem_ctrl.dram.bytesWritten                   0                       # Total bytes written (Byte)
system.mem_ctrl.dram.avgRdBW                56.883785                       # Average DRAM read bandwidth in MiBytes/s ((Byte/Second))
system.mem_ctrl.dram.avgWrBW                        0                       # Average DRAM write bandwidth in MiBytes/s ((Byte/Second))
system.mem_ctrl.dram.peakBW                  19207.00                       # Theoretical peak bandwidth in MiByte/s ((Byte/Second))
system.mem_ctrl.dram.busUtil                     0.30                       # Data bus utilization in percentage (Ratio)
system.mem_ctrl.dram.busUtilRead                 0.30                       # Data bus utilization in percentage for reads (Ratio)
system.mem_ctrl.dram.busUtilWrite                0.00                       # Data bus utilization in percentage for writes (Ratio)
system.mem_ctrl.dram.pageHitRate                71.10                       # Row buffer hit rate, read and write combined (Ratio)
system.mem_ctrl.dram.power_state.pwrStateResidencyTicks::UNDEFINED   3811842000                       # Cumulative time (in ticks) in various power states (Tick)
system.mem_ctrl.dram.rank0.actEnergy     2535545.376000                       # Energy for activate commands per rank (pJ) (Joule)
system.mem_ctrl.dram.rank0.preEnergy     3366828.729600                       # Energy for precharge commands per rank (pJ) (Joule)
system.mem_ctrl.dram.rank0.readEnergy    10831265.760000                       # Energy for read commands per rank (pJ) (Joule)
system.mem_ctrl.dram.rank0.writeEnergy              0                       # Energy for write commands per rank (pJ) (Joule)
system.mem_ctrl.dram.rank0.refreshEnergy 677449659.700803                       # Energy for refresh commands per rank (pJ) (Joule)
system.mem_ctrl.dram.rank0.actBackEnergy 2158863912.878399                       # Energy for active background per rank (pJ) (Joule)
system.mem_ctrl.dram.rank0.preBackEnergy 829582466.227200                       # Energy for precharge background per rank (pJ) (Joule)
system.mem_ctrl.dram.rank0.actPowerDownEnergy            0                       # Energy for active power-down per rank (pJ) (Joule)
system.mem_ctrl.dram.rank0.prePowerDownEnergy            0                       # Energy for precharge power-down per rank (pJ) (Joule)
system.mem_ctrl.dram.rank0.selfRefreshEnergy            0                       # Energy for self refresh per rank (pJ) (Joule)
system.mem_ctrl.dram.rank0.totalEnergy   3682629678.672000                       # Total energy per rank (pJ) (Joule)
system.mem_ctrl.dram.rank0.averagePower    966.102393                       # Core power per rank (mW) (Watt)
system.mem_ctrl.dram.rank0.totalIdleTime            0                       # Total Idle time Per DRAM Rank (Tick)
system.mem_ctrl.dram.rank0.pwrStateTime::IDLE   1257088780                       # Time in different power states (Tick)
system.mem_ctrl.dram.rank0.pwrStateTime::REF    171150000                       # Time in different power states (Tick)
system.mem_ctrl.dram.rank0.pwrStateTime::SREF            0                       # Time in different power states (Tick)
system.mem_ctrl.dram.rank0.pwrStateTime::PRE_PDN            0                       # Time in different power states (Tick)
system.mem_ctrl.dram.rank0.pwrStateTime::ACT   2383603220                       # Time in different power states (Tick)
system.mem_ctrl.dram.rank0.pwrStateTime::ACT_PDN            0                       # Time in different power states (Tick)
system.mem_ctrl.dram.rank1.actEnergy     517712.832000                       # Energy for activate commands per rank (pJ) (Joule)
system.mem_ctrl.dram.rank1.preEnergy     688292.572800                       # Energy for precharge commands per rank (pJ) (Joule)
system.mem_ctrl.dram.rank1.readEnergy    3419735.558400                       # Energy for read commands per rank (pJ) (Joule)
system.mem_ctrl.dram.rank1.writeEnergy              0                       # Energy for write commands per rank (pJ) (Joule)
system.mem_ctrl.dram.rank1.refreshEnergy 677449659.700803                       # Energy for refresh commands per rank (pJ) (Joule)
system.mem_ctrl.dram.rank1.actBackEnergy 270361264.219195                       # Energy for active background per rank (pJ) (Joule)
system.mem_ctrl.dram.rank1.preBackEnergy 2280635348.812810                       # Energy for precharge background per rank (pJ) (Joule)
system.mem_ctrl.dram.rank1.actPowerDownEnergy            0                       # Energy for active power-down per rank (pJ) (Joule)
system.mem_ctrl.dram.rank1.prePowerDownEnergy            0                       # Energy for precharge power-down per rank (pJ) (Joule)
system.mem_ctrl.dram.rank1.selfRefreshEnergy            0                       # Energy for self refresh per rank (pJ) (Joule)
system.mem_ctrl.dram.rank1.totalEnergy   3233072013.696003                       # Total energy per rank (pJ) (Joule)
system.mem_ctrl.dram.rank1.averagePower    848.165274                       # Core power per rank (mW) (Watt)
system.mem_ctrl.dram.rank1.totalIdleTime            0                       # Total Idle time Per DRAM Rank (Tick)
system.mem_ctrl.dram.rank1.pwrStateTime::IDLE   3486563560                       # Time in different power states (Tick)
system.mem_ctrl.dram.rank1.pwrStateTime::REF    171150000                       # Time in different power states (Tick)
system.mem_ctrl.dram.rank1.pwrStateTime::SREF            0                       # Time in different power states (Tick)
system.mem_ctrl.dram.rank1.pwrStateTime::PRE_PDN            0                       # Time in different power states (Tick)
system.mem_ctrl.dram.rank1.pwrStateTime::ACT    154128440                       # Time in different power states (Tick)
system.mem_ctrl.dram.rank1.pwrStateTime::ACT_PDN            0                       # Time in different power states (Tick)
system.mem_ctrl.power_state.pwrStateResidencyTicks::UNDEFINED   3811842000                       # Cumulative time (in ticks) in various power states (Tick)
system.membus.transDist::ReadResp                1603                       # Transaction distribution (Count)
system.membus.transDist::WritebackDirty            10                       # Transaction distribution (Count)
system.membus.transDist::CleanEvict               121                       # Transaction distribution (Count)
system.membus.transDist::ReadExReq               1786                       # Transaction distribution (Count)
system.membus.transDist::ReadExResp              1786                       # Transaction distribution (Count)
system.membus.transDist::ReadSharedReq           1603                       # Transaction distribution (Count)
system.membus.pktCount_system.l2cache.mem_side_port::system.mem_ctrl.port         6909                       # Packet count per connected requestor and responder (Count)
system.membus.pktCount::total                    6909                       # Packet count per connected requestor and responder (Count)
system.membus.pktSize_system.l2cache.mem_side_port::system.mem_ctrl.port       217536                       # Cumulative packet size per connected requestor and responder (Byte)
system.membus.pktSize::total                   217536                       # Cumulative packet size per connected requestor and responder (Byte)
system.membus.snoops                                0                       # Total snoops (Count)
system.membus.snoopTraffic                          0                       # Total snoop traffic (Byte)
system.membus.snoopFanout::samples               3389                       # Request fanout histogram (Count)
system.membus.snoopFanout::mean                     0                       # Request fanout histogram (Count)
system.membus.snoopFanout::stdev                    0                       # Request fanout histogram (Count)
system.membus.snoopFanout::underflows               0      0.00%      0.00% # Request fanout histogram (Count)
system.membus.snoopFanout::0                     3389    100.00%    100.00% # Request fanout histogram (Count)
system.membus.snoopFanout::1                        0      0.00%    100.00% # Request fanout histogram (Count)
system.membus.snoopFanout::overflows                0      0.00%    100.00% # Request fanout histogram (Count)
system.membus.snoopFanout::min_value                0                       # Request fanout histogram (Count)
system.membus.snoopFanout::max_value                0                       # Request fanout histogram (Count)
system.membus.snoopFanout::total                 3389                       # Request fanout histogram (Count)
system.membus.power_state.pwrStateResidencyTicks::UNDEFINED   3811842000                       # Cumulative time (in ticks) in various power states (Tick)
system.membus.reqLayer0.occupancy             1780000                       # Layer occupancy (ticks) (Tick)
system.membus.reqLayer0.utilization               0.0                       # Layer utilization (Ratio)
system.membus.respLayer0.occupancy            8845580                       # Layer occupancy (ticks) (Tick)
system.membus.respLayer0.utilization              0.0                       # Layer utilization (Ratio)
system.membus.snoop_filter.totRequests           3520                       # Total number of requests made to the snoop filter. (Count)
system.membus.snoop_filter.hitSingleRequests          131                       # Number of requests hitting in the snoop filter with a single holder of the requested data. (Count)
system.membus.snoop_filter.hitMultiRequests            0                       # Number of requests hitting in the snoop filter with multiple (>1) holders of the requested data. (Count)
system.membus.snoop_filter.totSnoops                0                       # Total number of snoops made to the snoop filter. (Count)
system.membus.snoop_filter.hitSingleSnoops            0                       # Number of snoops hitting in the snoop filter with a single holder of the requested data. (Count)
system.membus.snoop_filter.hitMultiSnoops            0                       # Number of snoops hitting in the snoop filter with multiple (>1) holders of the requested data. (Count)
system.workload.inst.arm                            0                       # number of arm instructions executed (Count)
system.workload.inst.quiesce                        0                       # number of quiesce instructions executed (Count)

---------- End Simulation Statistics   ----------
