
---------- Begin Simulation Statistics ----------
simSeconds                                   0.003858                       # Number of seconds simulated (Second)
simTicks                                   3858403000                       # Number of ticks simulated (Tick)
finalTick                                  3858403000                       # Number of ticks from beginning of simulation (restored from checkpoints and never reset) (Tick)
simFreq                                  1000000000000                       # The number of ticks per simulated second ((Tick/Second))
hostSeconds                                     30.41                       # Real time elapsed on the host (Second)
hostTickRate                                126860612                       # The number of ticks simulated per host second (ticks/s) ((Tick/Second))
hostMemory                                    2270872                       # Number of bytes of host memory used (Byte)
simInsts                                     10000005                       # Number of instructions simulated (Count)
simOps                                       11441045                       # Number of ops (including micro ops) simulated (Count)
hostInstRate                                   328790                       # Simulator instruction rate (inst/s) ((Count/Second))
hostOpRate                                     376170                       # Simulator op (including micro ops) rate (op/s) ((Count/Second))
system.clk_domain.clock                           500                       # Clock period in ticks (Tick)
system.clk_domain.voltage_domain.voltage            1                       # Voltage in Volts (Volt)
system.cpu.numCycles                          7716807                       # Number of cpu cycles simulated (Cycle)
system.cpu.numWorkItemsStarted                      0                       # Number of work items this cpu started (Count)
system.cpu.numWorkItemsCompleted                    0                       # Number of work items this cpu completed (Count)
system.cpu.instsAdded                        16657425                       # Number of instructions added to the IQ (excludes non-spec) (Count)
system.cpu.nonSpecInstsAdded                     1407                       # Number of non-speculative instructions added to the IQ (Count)
system.cpu.instsIssued                       14538064                       # Number of instructions issued (Count)
system.cpu.squashedInstsIssued                  32945                       # Number of squashed instructions issued (Count)
system.cpu.squashedInstsExamined              5217728                       # Number of squashed instructions iterated over during squash; mainly for profiling (Count)
system.cpu.squashedOperandsExamined          12656997                       # Number of squashed operands that are examined and possibly removed from graph (Count)
system.cpu.squashedNonSpecRemoved                 611                       # Number of squashed non-spec instructions that were removed (Count)
system.cpu.numIssuedDist::samples             7628874                       # Number of insts issued each cycle (Count)
system.cpu.numIssuedDist::mean               1.905663                       # Number of insts issued each cycle (Count)
system.cpu.numIssuedDist::stdev              1.938985                       # Number of insts issued each cycle (Count)
system.cpu.numIssuedDist::underflows                0      0.00%      0.00% # Number of insts issued each cycle (Count)
system.cpu.numIssuedDist::0                   2501461     32.79%     32.79% # Number of insts issued each cycle (Count)
system.cpu.numIssuedDist::1                   1382773     18.13%     50.91% # Number of insts issued each cycle (Count)
system.cpu.numIssuedDist::2                   1261616     16.54%     67.45% # Number of insts issued each cycle (Count)
system.cpu.numIssuedDist::3                    915507     12.00%     79.45% # Number of insts issued each cycle (Count)
system.cpu.numIssuedDist::4                    660287      8.66%     88.11% # Number of insts issued each cycle (Count)
system.cpu.numIssuedDist::5                    461419      6.05%     94.16% # Number of insts issued each cycle (Count)
system.cpu.numIssuedDist::6                    261880      3.43%     97.59% # Number of insts issued each cycle (Count)
system.cpu.numIssuedDist::7                    105433      1.38%     98.97% # Number of insts issued each cycle (Count)
system.cpu.numIssuedDist::8                     78498      1.03%    100.00% # Number of insts issued each cycle (Count)
system.cpu.numIssuedDist::overflows                 0      0.00%    100.00% # Number of insts issued each cycle (Count)
system.cpu.numIssuedDist::min_value                 0                       # Number of insts issued each cycle (Count)
system.cpu.numIssuedDist::max_value                 8                       # Number of insts issued each cycle (Count)
system.cpu.numIssuedDist::total               7628874                       # Number of insts issued each cycle (Count)
system.cpu.statFuBusy::No_OpClass                   0      0.00%      0.00% # attempts to use FU when none available (Count)
system.cpu.statFuBusy::IntAlu                   23585     12.48%     12.48% # attempts to use FU when none available (Count)
system.cpu.statFuBusy::IntMult                      0      0.00%     12.48% # attempts to use FU when none available (Count)
system.cpu.statFuBusy::IntDiv                       0      0.00%     12.48% # attempts to use FU when none available (Count)
system.cpu.statFuBusy::FloatAdd                     0      0.00%     12.48% # attempts to use FU when none available (Count)
system.cpu.statFuBusy::FloatCmp                     0      0.00%     12.48% # attempts to use FU when none available (Count)
system.cpu.statFuBusy::FloatCvt                     0      0.00%     12.48% # attempts to use FU when none available (Count)
system.cpu.statFuBusy::FloatMult                    0      0.00%     12.48% # attempts to use FU when none available (Count)
system.cpu.statFuBusy::FloatMultAcc                 0      0.00%     12.48% # attempts to use FU when none available (Count)
system.cpu.statFuBusy::FloatDiv                     0      0.00%     12.48% # attempts to use FU when none available (Count)
system.cpu.statFuBusy::FloatMisc                    0      0.00%     12.48% # attempts to use FU when none available (Count)
system.cpu.statFuBusy::FloatSqrt                    0      0.00%     12.48% # attempts to use FU when none available (Count)
system.cpu.statFuBusy::SimdAdd                      0      0.00%     12.48% # attempts to use FU when none available (Count)
system.cpu.statFuBusy::SimdAddAcc                   0      0.00%     12.48% # attempts to use FU when none available (Count)
system.cpu.statFuBusy::SimdAlu                      0      0.00%     12.48% # attempts to use FU when none available (Count)
system.cpu.statFuBusy::SimdCmp                      0      0.00%     12.48% # attempts to use FU when none available (Count)
system.cpu.statFuBusy::SimdCvt                      0      0.00%     12.48% # attempts to use FU when none available (Count)
system.cpu.statFuBusy::SimdMisc                     0      0.00%     12.48% # attempts to use FU when none available (Count)
system.cpu.statFuBusy::SimdMult                     0      0.00%     12.48% # attempts to use FU when none available (Count)
system.cpu.statFuBusy::SimdMultAcc                  0      0.00%     12.48% # attempts to use FU when none available (Count)
system.cpu.statFuBusy::SimdShift                    0      0.00%     12.48% # attempts to use FU when none available (Count)
system.cpu.statFuBusy::SimdShiftAcc                 0      0.00%     12.48% # attempts to use FU when none available (Count)
system.cpu.statFuBusy::SimdDiv                      0      0.00%     12.48% # attempts to use FU when none available (Count)
system.cpu.statFuBusy::SimdSqrt                     0      0.00%     12.48% # attempts to use FU when none available (Count)
system.cpu.statFuBusy::SimdFloatAdd                 0      0.00%     12.48% # attempts to use FU when none available (Count)
system.cpu.statFuBusy::SimdFloatAlu                 0      0.00%     12.48% # attempts to use FU when none available (Count)
system.cpu.statFuBusy::SimdFloatCmp                 0      0.00%     12.48% # attempts to use FU when none available (Count)
system.cpu.statFuBusy::SimdFloatCvt                 0      0.00%     12.48% # attempts to use FU when none available (Count)
system.cpu.statFuBusy::SimdFloatDiv                 0      0.00%     12.48% # attempts to use FU when none available (Count)
system.cpu.statFuBusy::SimdFloatMisc                0      0.00%     12.48% # attempts to use FU when none available (Count)
system.cpu.statFuBusy::SimdFloatMult                0      0.00%     12.48% # attempts to use FU when none available (Count)
system.cpu.statFuBusy::SimdFloatMultAcc             0      0.00%     12.48% # attempts to use FU when none available (Count)
system.cpu.statFuBusy::SimdFloatSqrt                0      0.00%     12.48% # attempts to use FU when none available (Count)
system.cpu.statFuBusy::SimdReduceAdd                0      0.00%     12.48% # attempts to use FU when none available (Count)
system.cpu.statFuBusy::SimdReduceAlu                0      0.00%     12.48% # attempts to use FU when none available (Count)
system.cpu.statFuBusy::SimdReduceCmp                0      0.00%     12.48% # attempts to use FU when none available (Count)
system.cpu.statFuBusy::SimdFloatReduceAdd            0      0.00%     12.48% # attempts to use FU when none available (Count)
system.cpu.statFuBusy::SimdFloatReduceCmp            0      0.00%     12.48% # attempts to use FU when none available (Count)
system.cpu.statFuBusy::SimdAes                      0      0.00%     12.48% # attempts to use FU when none available (Count)
system.cpu.statFuBusy::SimdAesMix                   0      0.00%     12.48% # attempts to use FU when none available (Count)
system.cpu.statFuBusy::SimdSha1Hash                 0      0.00%     12.48% # attempts to use FU when none available (Count)
system.cpu.statFuBusy::SimdSha1Hash2                0      0.00%     12.48% # attempts to use FU when none available (Count)
system.cpu.statFuBusy::SimdSha256Hash               0      0.00%     12.48% # attempts to use FU when none available (Count)
system.cpu.statFuBusy::SimdSha256Hash2              0      0.00%     12.48% # attempts to use FU when none available (Count)
system.cpu.statFuBusy::SimdShaSigma2                0      0.00%     12.48% # attempts to use FU when none available (Count)
system.cpu.statFuBusy::SimdShaSigma3                0      0.00%     12.48% # attempts to use FU when none available (Count)
system.cpu.statFuBusy::SimdPredAlu                  0      0.00%     12.48% # attempts to use FU when none available (Count)
system.cpu.statFuBusy::MemRead                  96138     50.85%     63.33% # attempts to use FU when none available (Count)
system.cpu.statFuBusy::MemWrite                 69323     36.67%    100.00% # attempts to use FU when none available (Count)
system.cpu.statFuBusy::FloatMemRead                 0      0.00%    100.00% # attempts to use FU when none available (Count)
system.cpu.statFuBusy::FloatMemWrite                0      0.00%    100.00% # attempts to use FU when none available (Count)
system.cpu.statFuBusy::IprAccess                    0      0.00%    100.00% # attempts to use FU when none available (Count)
system.cpu.statFuBusy::InstPrefetch                 0      0.00%    100.00% # attempts to use FU when none available (Count)
system.cpu.statIssuedInstType_0::No_OpClass          171      0.00%      0.00% # Number of instructions issued per FU type, per thread (Count)
system.cpu.statIssuedInstType_0::IntAlu       8951396     61.57%     61.57% # Number of instructions issued per FU type, per thread (Count)
system.cpu.statIssuedInstType_0::IntMult        49731      0.34%     61.92% # Number of instructions issued per FU type, per thread (Count)
system.cpu.statIssuedInstType_0::IntDiv             0      0.00%     61.92% # Number of instructions issued per FU type, per thread (Count)
system.cpu.statIssuedInstType_0::FloatAdd            0      0.00%     61.92% # Number of instructions issued per FU type, per thread (Count)
system.cpu.statIssuedInstType_0::FloatCmp            0      0.00%     61.92% # Number of instructions issued per FU type, per thread (Count)
system.cpu.statIssuedInstType_0::FloatCvt            0      0.00%     61.92% # Number of instructions issued per FU type, per thread (Count)
system.cpu.statIssuedInstType_0::FloatMult            0      0.00%     61.92% # Number of instructions issued per FU type, per thread (Count)
system.cpu.statIssuedInstType_0::FloatMultAcc            0      0.00%     61.92% # Number of instructions issued per FU type, per thread (Count)
system.cpu.statIssuedInstType_0::FloatDiv            0      0.00%     61.92% # Number of instructions issued per FU type, per thread (Count)
system.cpu.statIssuedInstType_0::FloatMisc            0      0.00%     61.92% # Number of instructions issued per FU type, per thread (Count)
system.cpu.statIssuedInstType_0::FloatSqrt            0      0.00%     61.92% # Number of instructions issued per FU type, per thread (Count)
system.cpu.statIssuedInstType_0::SimdAdd            0      0.00%     61.92% # Number of instructions issued per FU type, per thread (Count)
system.cpu.statIssuedInstType_0::SimdAddAcc            0      0.00%     61.92% # Number of instructions issued per FU type, per thread (Count)
system.cpu.statIssuedInstType_0::SimdAlu            0      0.00%     61.92% # Number of instructions issued per FU type, per thread (Count)
system.cpu.statIssuedInstType_0::SimdCmp            0      0.00%     61.92% # Number of instructions issued per FU type, per thread (Count)
system.cpu.statIssuedInstType_0::SimdCvt            0      0.00%     61.92% # Number of instructions issued per FU type, per thread (Count)
system.cpu.statIssuedInstType_0::SimdMisc            0      0.00%     61.92% # Number of instructions issued per FU type, per thread (Count)
system.cpu.statIssuedInstType_0::SimdMult            0      0.00%     61.92% # Number of instructions issued per FU type, per thread (Count)
system.cpu.statIssuedInstType_0::SimdMultAcc            0      0.00%     61.92% # Number of instructions issued per FU type, per thread (Count)
system.cpu.statIssuedInstType_0::SimdShift            0      0.00%     61.92% # Number of instructions issued per FU type, per thread (Count)
system.cpu.statIssuedInstType_0::SimdShiftAcc            0      0.00%     61.92% # Number of instructions issued per FU type, per thread (Count)
system.cpu.statIssuedInstType_0::SimdDiv            0      0.00%     61.92% # Number of instructions issued per FU type, per thread (Count)
system.cpu.statIssuedInstType_0::SimdSqrt            0      0.00%     61.92% # Number of instructions issued per FU type, per thread (Count)
system.cpu.statIssuedInstType_0::SimdFloatAdd            0      0.00%     61.92% # Number of instructions issued per FU type, per thread (Count)
system.cpu.statIssuedInstType_0::SimdFloatAlu            0      0.00%     61.92% # Number of instructions issued per FU type, per thread (Count)
system.cpu.statIssuedInstType_0::SimdFloatCmp            0      0.00%     61.92% # Number of instructions issued per FU type, per thread (Count)
system.cpu.statIssuedInstType_0::SimdFloatCvt            0      0.00%     61.92% # Number of instructions issued per FU type, per thread (Count)
system.cpu.statIssuedInstType_0::SimdFloatDiv            0      0.00%     61.92% # Number of instructions issued per FU type, per thread (Count)
system.cpu.statIssuedInstType_0::SimdFloatMisc            0      0.00%     61.92% # Number of instructions issued per FU type, per thread (Count)
system.cpu.statIssuedInstType_0::SimdFloatMult            0      0.00%     61.92% # Number of instructions issued per FU type, per thread (Count)
system.cpu.statIssuedInstType_0::SimdFloatMultAcc            0      0.00%     61.92% # Number of instructions issued per FU type, per thread (Count)
system.cpu.statIssuedInstType_0::SimdFloatSqrt            0      0.00%     61.92% # Number of instructions issued per FU type, per thread (Count)
system.cpu.statIssuedInstType_0::SimdReduceAdd            0      0.00%     61.92% # Number of instructions issued per FU type, per thread (Count)
system.cpu.statIssuedInstType_0::SimdReduceAlu            0      0.00%     61.92% # Number of instructions issued per FU type, per thread (Count)
system.cpu.statIssuedInstType_0::SimdReduceCmp            0      0.00%     61.92% # Number of instructions issued per FU type, per thread (Count)
system.cpu.statIssuedInstType_0::SimdFloatReduceAdd            0      0.00%     61.92% # Number of instructions issued per FU type, per thread (Count)
system.cpu.statIssuedInstType_0::SimdFloatReduceCmp            0      0.00%     61.92% # Number of instructions issued per FU type, per thread (Count)
system.cpu.statIssuedInstType_0::SimdAes            0      0.00%     61.92% # Number of instructions issued per FU type, per thread (Count)
system.cpu.statIssuedInstType_0::SimdAesMix            0      0.00%     61.92% # Number of instructions issued per FU type, per thread (Count)
system.cpu.statIssuedInstType_0::SimdSha1Hash            0      0.00%     61.92% # Number of instructions issued per FU type, per thread (Count)
system.cpu.statIssuedInstType_0::SimdSha1Hash2            0      0.00%     61.92% # Number of instructions issued per FU type, per thread (Count)
system.cpu.statIssuedInstType_0::SimdSha256Hash            0      0.00%     61.92% # Number of instructions issued per FU type, per thread (Count)
system.cpu.statIssuedInstType_0::SimdSha256Hash2            0      0.00%     61.92% # Number of instructions issued per FU type, per thread (Count)
system.cpu.statIssuedInstType_0::SimdShaSigma2            0      0.00%     61.92% # Number of instructions issued per FU type, per thread (Count)
system.cpu.statIssuedInstType_0::SimdShaSigma3            0      0.00%     61.92% # Number of instructions issued per FU type, per thread (Count)
system.cpu.statIssuedInstType_0::SimdPredAlu            0      0.00%     61.92% # Number of instructions issued per FU type, per thread (Count)
system.cpu.statIssuedInstType_0::MemRead      3477531     23.92%     85.84% # Number of instructions issued per FU type, per thread (Count)
system.cpu.statIssuedInstType_0::MemWrite      2059235     14.16%    100.00% # Number of instructions issued per FU type, per thread (Count)
system.cpu.statIssuedInstType_0::FloatMemRead            0      0.00%    100.00% # Number of instructions issued per FU type, per thread (Count)
system.cpu.statIssuedInstType_0::FloatMemWrite            0      0.00%    100.00% # Number of instructions issued per FU type, per thread (Count)
system.cpu.statIssuedInstType_0::IprAccess            0      0.00%    100.00% # Number of instructions issued per FU type, per thread (Count)
system.cpu.statIssuedInstType_0::InstPrefetch            0      0.00%    100.00% # Number of instructions issued per FU type, per thread (Count)
system.cpu.statIssuedInstType_0::total       14538064                       # Number of instructions issued per FU type, per thread (Count)
system.cpu.issueRate                         1.883948                       # Inst issue rate ((Count/Cycle))
system.cpu.fuBusy                              189046                       # FU busy when requested (Count)
system.cpu.fuBusyRate                        0.013004                       # FU busy rate (busy events/executed inst) ((Count/Count))
system.cpu.intInstQueueReads                 36926990                       # Number of integer instruction queue reads (Count)
system.cpu.intInstQueueWrites                21877168                       # Number of integer instruction queue writes (Count)
system.cpu.intInstQueueWakeupAccesses        13792869                       # Number of integer instruction queue wakeup accesses (Count)
system.cpu.fpInstQueueReads                         0                       # Number of floating instruction queue reads (Count)
system.cpu.fpInstQueueWrites                        0                       # Number of floating instruction queue writes (Count)
system.cpu.fpInstQueueWakeupAccesses                0                       # Number of floating instruction queue wakeup accesses (Count)
system.cpu.vecInstQueueReads                        0                       # Number of vector instruction queue reads (Count)
system.cpu.vecInstQueueWrites                       0                       # Number of vector instruction queue writes (Count)
system.cpu.vecInstQueueWakeupAccesses               0                       # Number of vector instruction queue wakeup accesses (Count)
system.cpu.intAluAccesses                    14726939                       # Number of integer alu accesses (Count)
system.cpu.fpAluAccesses                            0                       # Number of floating point alu accesses (Count)
system.cpu.vecAluAccesses                           0                       # Number of vector alu accesses (Count)
system.cpu.numInsts                          14203885                       # Number of executed instructions (Count)
system.cpu.numLoadInsts                       3333803                       # Number of load instructions executed (Count)
system.cpu.numSquashedInsts                    334176                       # Number of squashed instructions skipped in execute (Count)
system.cpu.numSwp                                   0                       # Number of swp insts executed (Count)
system.cpu.numNop                                   0                       # Number of nop insts executed (Count)
system.cpu.numRefs                            5332976                       # Number of memory reference insts executed (Count)
system.cpu.numBranches                        2248060                       # Number of branches executed (Count)
system.cpu.numStoreInsts                      1999173                       # Number of stores executed (Count)
system.cpu.numRate                           1.840643                       # Inst execution rate ((Count/Cycle))
system.cpu.timesIdled                            8455                       # Number of times that the entire CPU went into an idle state and unscheduled itself (Count)
system.cpu.idleCycles                           87933                       # Total number of cycles that the CPU has spent unscheduled due to idling (Cycle)
system.cpu.committedInsts                    10000005                       # Number of Instructions Simulated (Count)
system.cpu.committedOps                      11441045                       # Number of Ops (including micro ops) Simulated (Count)
system.cpu.cpi                               0.771680                       # CPI: Cycles Per Instruction ((Cycle/Count))
system.cpu.totalCpi                          0.771680                       # CPI: Total CPI of All Threads ((Cycle/Count))
system.cpu.ipc                               1.295873                       # IPC: Instructions Per Cycle ((Count/Cycle))
system.cpu.totalIpc                          1.295873                       # IPC: Total IPC of All Threads ((Count/Cycle))
system.cpu.intRegfileReads                   16075630                       # Number of integer regfile reads (Count)
system.cpu.intRegfileWrites                   8298372                       # Number of integer regfile writes (Count)
system.cpu.vecRegfileReads                         16                       # number of vector regfile reads (Count)
system.cpu.ccRegfileReads                    51434161                       # number of cc regfile reads (Count)
system.cpu.ccRegfileWrites                    6655221                       # number of cc regfile writes (Count)
system.cpu.miscRegfileReads                   4942739                       # number of misc regfile reads (Count)
system.cpu.miscRegfileWrites                     1545                       # number of misc regfile writes (Count)
system.cpu.MemDepUnit__0.insertedLoads        3745943                       # Number of loads inserted to the mem dependence unit. (Count)
system.cpu.MemDepUnit__0.insertedStores       2329139                       # Number of stores inserted to the mem dependence unit. (Count)
system.cpu.MemDepUnit__0.conflictingLoads       467086                       # Number of conflicting loads. (Count)
system.cpu.MemDepUnit__0.conflictingStores       453780                       # Number of conflicting stores. (Count)
system.cpu.MemDepUnit__1.insertedLoads              0                       # Number of loads inserted to the mem dependence unit. (Count)
system.cpu.MemDepUnit__1.insertedStores             0                       # Number of stores inserted to the mem dependence unit. (Count)
system.cpu.MemDepUnit__1.conflictingLoads            0                       # Number of conflicting loads. (Count)
system.cpu.MemDepUnit__1.conflictingStores            0                       # Number of conflicting stores. (Count)
system.cpu.MemDepUnit__2.insertedLoads              0                       # Number of loads inserted to the mem dependence unit. (Count)
system.cpu.MemDepUnit__2.insertedStores             0                       # Number of stores inserted to the mem dependence unit. (Count)
system.cpu.MemDepUnit__2.conflictingLoads            0                       # Number of conflicting loads. (Count)
system.cpu.MemDepUnit__2.conflictingStores            0                       # Number of conflicting stores. (Count)
system.cpu.MemDepUnit__3.insertedLoads              0                       # Number of loads inserted to the mem dependence unit. (Count)
system.cpu.MemDepUnit__3.insertedStores             0                       # Number of stores inserted to the mem dependence unit. (Count)
system.cpu.MemDepUnit__3.conflictingLoads            0                       # Number of conflicting loads. (Count)
system.cpu.MemDepUnit__3.conflictingStores            0                       # Number of conflicting stores. (Count)
system.cpu.branchPred.lookups                 3215230                       # Number of BP lookups (Count)
system.cpu.branchPred.condPredicted           2266178                       # Number of conditional branches predicted (Count)
system.cpu.branchPred.condIncorrect            226741                       # Number of conditional branches incorrect (Count)
system.cpu.branchPred.BTBLookups              1679563                       # Number of BTB lookups (Count)
system.cpu.branchPred.BTBHits                  992722                       # Number of BTB hits (Count)
system.cpu.branchPred.BTBHitRatio            0.591060                       # BTB Hit Ratio (Ratio)
system.cpu.branchPred.RASUsed                  367462                       # Number of times the RAS was used to get a target. (Count)
system.cpu.branchPred.RASIncorrect               7642                       # Number of incorrect RAS predictions. (Count)
system.cpu.branchPred.indirectLookups           87330                       # Number of indirect predictor lookups. (Count)
system.cpu.branchPred.indirectHits              48180                       # Number of indirect target hits. (Count)
system.cpu.branchPred.indirectMisses            39150                       # Number of indirect misses. (Count)
system.cpu.branchPred.indirectMispredicted         2105                       # Number of mispredicted indirect branches. (Count)
system.cpu.commit.commitSquashedInsts         5216630                       # The number of squashed insts skipped by commit (Count)
system.cpu.commit.commitNonSpecStalls             796                       # The number of times commit has been forced to stall to communicate backwards (Count)
system.cpu.commit.branchMispredicts            196400                       # The number of times a branch was mispredicted (Count)
system.cpu.commit.numCommittedDist::samples      6856654                       # Number of insts commited each cycle (Count)
system.cpu.commit.numCommittedDist::mean     1.668605                       # Number of insts commited each cycle (Count)
system.cpu.commit.numCommittedDist::stdev     2.339785                       # Number of insts commited each cycle (Count)
system.cpu.commit.numCommittedDist::underflows            0      0.00%      0.00% # Number of insts commited each cycle (Count)
system.cpu.commit.numCommittedDist::0         2830729     41.28%     41.28% # Number of insts commited each cycle (Count)
system.cpu.commit.numCommittedDist::1         1787515     26.07%     67.35% # Number of insts commited each cycle (Count)
system.cpu.commit.numCommittedDist::2          881028     12.85%     80.20% # Number of insts commited each cycle (Count)
system.cpu.commit.numCommittedDist::3          219904      3.21%     83.41% # Number of insts commited each cycle (Count)
system.cpu.commit.numCommittedDist::4          288357      4.21%     87.62% # Number of insts commited each cycle (Count)
system.cpu.commit.numCommittedDist::5          156404      2.28%     89.90% # Number of insts commited each cycle (Count)
system.cpu.commit.numCommittedDist::6           80416      1.17%     91.07% # Number of insts commited each cycle (Count)
system.cpu.commit.numCommittedDist::7           84590      1.23%     92.30% # Number of insts commited each cycle (Count)
system.cpu.commit.numCommittedDist::8          527711      7.70%    100.00% # Number of insts commited each cycle (Count)
system.cpu.commit.numCommittedDist::overflows            0      0.00%    100.00% # Number of insts commited each cycle (Count)
system.cpu.commit.numCommittedDist::min_value            0                       # Number of insts commited each cycle (Count)
system.cpu.commit.numCommittedDist::max_value            8                       # Number of insts commited each cycle (Count)
system.cpu.commit.numCommittedDist::total      6856654                       # Number of insts commited each cycle (Count)
system.cpu.commit.instsCommitted             10000005                       # Number of instructions committed (Count)
system.cpu.commit.opsCommitted               11441045                       # Number of ops (including micro ops) committed (Count)
system.cpu.commit.memRefs                     4051968                       # Number of memory references committed (Count)
system.cpu.commit.loads                       2486410                       # Number of loads committed (Count)
system.cpu.commit.amos                              0                       # Number of atomic instructions committed (Count)
system.cpu.commit.membars                         390                       # Number of memory barriers committed (Count)
system.cpu.commit.branches                    1853544                       # Number of branches committed (Count)
system.cpu.commit.vectorInstructions                0                       # Number of committed Vector instructions. (Count)
system.cpu.commit.floating                          0                       # Number of committed floating point instructions. (Count)
system.cpu.commit.integer                    10013739                       # Number of committed integer instructions. (Count)
system.cpu.commit.functionCalls                199147                       # Number of function calls committed. (Count)
system.cpu.commit.committedInstType_0::No_OpClass            0      0.00%      0.00% # Class of committed instruction (Count)
system.cpu.commit.committedInstType_0::IntAlu      7341683     64.17%     64.17% # Class of committed instruction (Count)
system.cpu.commit.committedInstType_0::IntMult        47394      0.41%     64.58% # Class of committed instruction (Count)
system.cpu.commit.committedInstType_0::IntDiv            0      0.00%     64.58% # Class of committed instruction (Count)
system.cpu.commit.committedInstType_0::FloatAdd            0      0.00%     64.58% # Class of committed instruction (Count)
system.cpu.commit.committedInstType_0::FloatCmp            0      0.00%     64.58% # Class of committed instruction (Count)
system.cpu.commit.committedInstType_0::FloatCvt            0      0.00%     64.58% # Class of committed instruction (Count)
system.cpu.commit.committedInstType_0::FloatMult            0      0.00%     64.58% # Class of committed instruction (Count)
system.cpu.commit.committedInstType_0::FloatMultAcc            0      0.00%     64.58% # Class of committed instruction (Count)
system.cpu.commit.committedInstType_0::FloatDiv            0      0.00%     64.58% # Class of committed instruction (Count)
system.cpu.commit.committedInstType_0::FloatMisc            0      0.00%     64.58% # Class of committed instruction (Count)
system.cpu.commit.committedInstType_0::FloatSqrt            0      0.00%     64.58% # Class of committed instruction (Count)
system.cpu.commit.committedInstType_0::SimdAdd            0      0.00%     64.58% # Class of committed instruction (Count)
system.cpu.commit.committedInstType_0::SimdAddAcc            0      0.00%     64.58% # Class of committed instruction (Count)
system.cpu.commit.committedInstType_0::SimdAlu            0      0.00%     64.58% # Class of committed instruction (Count)
system.cpu.commit.committedInstType_0::SimdCmp            0      0.00%     64.58% # Class of committed instruction (Count)
system.cpu.commit.committedInstType_0::SimdCvt            0      0.00%     64.58% # Class of committed instruction (Count)
system.cpu.commit.committedInstType_0::SimdMisc            0      0.00%     64.58% # Class of committed instruction (Count)
system.cpu.commit.committedInstType_0::SimdMult            0      0.00%     64.58% # Class of committed instruction (Count)
system.cpu.commit.committedInstType_0::SimdMultAcc            0      0.00%     64.58% # Class of committed instruction (Count)
system.cpu.commit.committedInstType_0::SimdShift            0      0.00%     64.58% # Class of committed instruction (Count)
system.cpu.commit.committedInstType_0::SimdShiftAcc            0      0.00%     64.58% # Class of committed instruction (Count)
system.cpu.commit.committedInstType_0::SimdDiv            0      0.00%     64.58% # Class of committed instruction (Count)
system.cpu.commit.committedInstType_0::SimdSqrt            0      0.00%     64.58% # Class of committed instruction (Count)
system.cpu.commit.committedInstType_0::SimdFloatAdd            0      0.00%     64.58% # Class of committed instruction (Count)
system.cpu.commit.committedInstType_0::SimdFloatAlu            0      0.00%     64.58% # Class of committed instruction (Count)
system.cpu.commit.committedInstType_0::SimdFloatCmp            0      0.00%     64.58% # Class of committed instruction (Count)
system.cpu.commit.committedInstType_0::SimdFloatCvt            0      0.00%     64.58% # Class of committed instruction (Count)
system.cpu.commit.committedInstType_0::SimdFloatDiv            0      0.00%     64.58% # Class of committed instruction (Count)
system.cpu.commit.committedInstType_0::SimdFloatMisc            0      0.00%     64.58% # Class of committed instruction (Count)
system.cpu.commit.committedInstType_0::SimdFloatMult            0      0.00%     64.58% # Class of committed instruction (Count)
system.cpu.commit.committedInstType_0::SimdFloatMultAcc            0      0.00%     64.58% # Class of committed instruction (Count)
system.cpu.commit.committedInstType_0::SimdFloatSqrt            0      0.00%     64.58% # Class of committed instruction (Count)
system.cpu.commit.committedInstType_0::SimdReduceAdd            0      0.00%     64.58% # Class of committed instruction (Count)
system.cpu.commit.committedInstType_0::SimdReduceAlu            0      0.00%     64.58% # Class of committed instruction (Count)
system.cpu.commit.committedInstType_0::SimdReduceCmp            0      0.00%     64.58% # Class of committed instruction (Count)
system.cpu.commit.committedInstType_0::SimdFloatReduceAdd            0      0.00%     64.58% # Class of committed instruction (Count)
system.cpu.commit.committedInstType_0::SimdFloatReduceCmp            0      0.00%     64.58% # Class of committed instruction (Count)
system.cpu.commit.committedInstType_0::SimdAes            0      0.00%     64.58% # Class of committed instruction (Count)
system.cpu.commit.committedInstType_0::SimdAesMix            0      0.00%     64.58% # Class of committed instruction (Count)
system.cpu.commit.committedInstType_0::SimdSha1Hash            0      0.00%     64.58% # Class of committed instruction (Count)
system.cpu.commit.committedInstType_0::SimdSha1Hash2            0      0.00%     64.58% # Class of committed instruction (Count)
system.cpu.commit.committedInstType_0::SimdSha256Hash            0      0.00%     64.58% # Class of committed instruction (Count)
system.cpu.commit.committedInstType_0::SimdSha256Hash2            0      0.00%     64.58% # Class of committed instruction (Count)
system.cpu.commit.committedInstType_0::SimdShaSigma2            0      0.00%     64.58% # Class of committed instruction (Count)
system.cpu.commit.committedInstType_0::SimdShaSigma3            0      0.00%     64.58% # Class of committed instruction (Count)
system.cpu.commit.committedInstType_0::SimdPredAlu            0      0.00%     64.58% # Class of committed instruction (Count)
system.cpu.commit.committedInstType_0::MemRead      2486410     21.73%     86.32% # Class of committed instruction (Count)
system.cpu.commit.committedInstType_0::MemWrite      1565558     13.68%    100.00% # Class of committed instruction (Count)
system.cpu.commit.committedInstType_0::FloatMemRead            0      0.00%    100.00% # Class of committed instruction (Count)
system.cpu.commit.committedInstType_0::FloatMemWrite            0      0.00%    100.00% # Class of committed instruction (Count)
system.cpu.commit.committedInstType_0::IprAccess            0      0.00%    100.00% # Class of committed instruction (Count)
system.cpu.commit.committedInstType_0::InstPrefetch            0      0.00%    100.00% # Class of committed instruction (Count)
system.cpu.commit.committedInstType_0::total     11441045                       # Class of committed instruction (Count)
system.cpu.commit.commitEligibleSamples        527711                       # number cycles where commit BW limit reached (Cycle)
system.cpu.dcache.demandHits::cpu.data        4297539                       # number of demand (read+write) hits (Count)
system.cpu.dcache.demandHits::total           4297539                       # number of demand (read+write) hits (Count)
system.cpu.dcache.overallHits::cpu.data       4297539                       # number of overall hits (Count)
system.cpu.dcache.overallHits::total          4297539                       # number of overall hits (Count)
system.cpu.dcache.demandMisses::cpu.data        25521                       # number of demand (read+write) misses (Count)
system.cpu.dcache.demandMisses::total           25521                       # number of demand (read+write) misses (Count)
system.cpu.dcache.overallMisses::cpu.data        25521                       # number of overall misses (Count)
system.cpu.dcache.overallMisses::total          25521                       # number of overall misses (Count)
system.cpu.dcache.demandMissLatency::cpu.data   1321763489                       # number of demand (read+write) miss ticks (Tick)
system.cpu.dcache.demandMissLatency::total   1321763489                       # number of demand (read+write) miss ticks (Tick)
system.cpu.dcache.overallMissLatency::cpu.data   1321763489                       # number of overall miss ticks (Tick)
system.cpu.dcache.overallMissLatency::total   1321763489                       # number of overall miss ticks (Tick)
system.cpu.dcache.demandAccesses::cpu.data      4323060                       # number of demand (read+write) accesses (Count)
system.cpu.dcache.demandAccesses::total       4323060                       # number of demand (read+write) accesses (Count)
system.cpu.dcache.overallAccesses::cpu.data      4323060                       # number of overall (read+write) accesses (Count)
system.cpu.dcache.overallAccesses::total      4323060                       # number of overall (read+write) accesses (Count)
system.cpu.dcache.demandMissRate::cpu.data     0.005903                       # miss rate for demand accesses (Ratio)
system.cpu.dcache.demandMissRate::total      0.005903                       # miss rate for demand accesses (Ratio)
system.cpu.dcache.overallMissRate::cpu.data     0.005903                       # miss rate for overall accesses (Ratio)
system.cpu.dcache.overallMissRate::total     0.005903                       # miss rate for overall accesses (Ratio)
system.cpu.dcache.demandAvgMissLatency::cpu.data 51791.210728                       # average overall miss latency in ticks ((Tick/Count))
system.cpu.dcache.demandAvgMissLatency::total 51791.210728                       # average overall miss latency in ticks ((Tick/Count))
system.cpu.dcache.overallAvgMissLatency::cpu.data 51791.210728                       # average overall miss latency ((Tick/Count))
system.cpu.dcache.overallAvgMissLatency::total 51791.210728                       # average overall miss latency ((Tick/Count))
system.cpu.dcache.blockedCycles::no_mshrs         1381                       # number of cycles access was blocked (Cycle)
system.cpu.dcache.blockedCycles::no_targets          364                       # number of cycles access was blocked (Cycle)
system.cpu.dcache.blockedCauses::no_mshrs           47                       # number of times access was blocked (Count)
system.cpu.dcache.blockedCauses::no_targets            5                       # number of times access was blocked (Count)
system.cpu.dcache.avgBlocked::no_mshrs      29.382979                       # average number of cycles each access was blocked ((Cycle/Count))
system.cpu.dcache.avgBlocked::no_targets    72.800000                       # average number of cycles each access was blocked ((Cycle/Count))
system.cpu.dcache.writebacks::writebacks         2290                       # number of writebacks (Count)
system.cpu.dcache.writebacks::total              2290                       # number of writebacks (Count)
system.cpu.dcache.demandMshrHits::cpu.data        21406                       # number of demand (read+write) MSHR hits (Count)
system.cpu.dcache.demandMshrHits::total         21406                       # number of demand (read+write) MSHR hits (Count)
system.cpu.dcache.overallMshrHits::cpu.data        21406                       # number of overall MSHR hits (Count)
system.cpu.dcache.overallMshrHits::total        21406                       # number of overall MSHR hits (Count)
system.cpu.dcache.demandMshrMisses::cpu.data         4115                       # number of demand (read+write) MSHR misses (Count)
system.cpu.dcache.demandMshrMisses::total         4115                       # number of demand (read+write) MSHR misses (Count)
system.cpu.dcache.overallMshrMisses::cpu.data         4115                       # number of overall MSHR misses (Count)
system.cpu.dcache.overallMshrMisses::total         4115                       # number of overall MSHR misses (Count)
system.cpu.dcache.demandMshrMissLatency::cpu.data    191538497                       # number of demand (read+write) MSHR miss ticks (Tick)
system.cpu.dcache.demandMshrMissLatency::total    191538497                       # number of demand (read+write) MSHR miss ticks (Tick)
system.cpu.dcache.overallMshrMissLatency::cpu.data    191538497                       # number of overall MSHR miss ticks (Tick)
system.cpu.dcache.overallMshrMissLatency::total    191538497                       # number of overall MSHR miss ticks (Tick)
system.cpu.dcache.demandMshrMissRate::cpu.data     0.000952                       # mshr miss ratio for demand accesses (Ratio)
system.cpu.dcache.demandMshrMissRate::total     0.000952                       # mshr miss ratio for demand accesses (Ratio)
system.cpu.dcache.overallMshrMissRate::cpu.data     0.000952                       # mshr miss ratio for overall accesses (Ratio)
system.cpu.dcache.overallMshrMissRate::total     0.000952                       # mshr miss ratio for overall accesses (Ratio)
system.cpu.dcache.demandAvgMshrMissLatency::cpu.data 46546.414824                       # average overall mshr miss latency ((Tick/Count))
system.cpu.dcache.demandAvgMshrMissLatency::total 46546.414824                       # average overall mshr miss latency ((Tick/Count))
system.cpu.dcache.overallAvgMshrMissLatency::cpu.data 46546.414824                       # average overall mshr miss latency ((Tick/Count))
system.cpu.dcache.overallAvgMshrMissLatency::total 46546.414824                       # average overall mshr miss latency ((Tick/Count))
system.cpu.dcache.replacements                   3602                       # number of replacements (Count)
system.cpu.dcache.LoadLockedReq.hits::cpu.data          392                       # number of LoadLockedReq hits (Count)
system.cpu.dcache.LoadLockedReq.hits::total          392                       # number of LoadLockedReq hits (Count)
system.cpu.dcache.LoadLockedReq.misses::cpu.data            7                       # number of LoadLockedReq misses (Count)
system.cpu.dcache.LoadLockedReq.misses::total            7                       # number of LoadLockedReq misses (Count)
system.cpu.dcache.LoadLockedReq.missLatency::cpu.data       302500                       # number of LoadLockedReq miss ticks (Tick)
system.cpu.dcache.LoadLockedReq.missLatency::total       302500                       # number of LoadLockedReq miss ticks (Tick)
system.cpu.dcache.LoadLockedReq.accesses::cpu.data          399                       # number of LoadLockedReq accesses(hits+misses) (Count)
system.cpu.dcache.LoadLockedReq.accesses::total          399                       # number of LoadLockedReq accesses(hits+misses) (Count)
system.cpu.dcache.LoadLockedReq.missRate::cpu.data     0.017544                       # miss rate for LoadLockedReq accesses (Ratio)
system.cpu.dcache.LoadLockedReq.missRate::total     0.017544                       # miss rate for LoadLockedReq accesses (Ratio)
system.cpu.dcache.LoadLockedReq.avgMissLatency::cpu.data 43214.285714                       # average LoadLockedReq miss latency ((Tick/Count))
system.cpu.dcache.LoadLockedReq.avgMissLatency::total 43214.285714                       # average LoadLockedReq miss latency ((Tick/Count))
system.cpu.dcache.LoadLockedReq.mshrHits::cpu.data            7                       # number of LoadLockedReq MSHR hits (Count)
system.cpu.dcache.LoadLockedReq.mshrHits::total            7                       # number of LoadLockedReq MSHR hits (Count)
system.cpu.dcache.ReadReq.hits::cpu.data      2783020                       # number of ReadReq hits (Count)
system.cpu.dcache.ReadReq.hits::total         2783020                       # number of ReadReq hits (Count)
system.cpu.dcache.ReadReq.misses::cpu.data         6421                       # number of ReadReq misses (Count)
system.cpu.dcache.ReadReq.misses::total          6421                       # number of ReadReq misses (Count)
system.cpu.dcache.ReadReq.missLatency::cpu.data    121452500                       # number of ReadReq miss ticks (Tick)
system.cpu.dcache.ReadReq.missLatency::total    121452500                       # number of ReadReq miss ticks (Tick)
system.cpu.dcache.ReadReq.accesses::cpu.data      2789441                       # number of ReadReq accesses(hits+misses) (Count)
system.cpu.dcache.ReadReq.accesses::total      2789441                       # number of ReadReq accesses(hits+misses) (Count)
system.cpu.dcache.ReadReq.missRate::cpu.data     0.002302                       # miss rate for ReadReq accesses (Ratio)
system.cpu.dcache.ReadReq.missRate::total     0.002302                       # miss rate for ReadReq accesses (Ratio)
system.cpu.dcache.ReadReq.avgMissLatency::cpu.data 18914.888647                       # average ReadReq miss latency ((Tick/Count))
system.cpu.dcache.ReadReq.avgMissLatency::total 18914.888647                       # average ReadReq miss latency ((Tick/Count))
system.cpu.dcache.ReadReq.mshrHits::cpu.data         4186                       # number of ReadReq MSHR hits (Count)
system.cpu.dcache.ReadReq.mshrHits::total         4186                       # number of ReadReq MSHR hits (Count)
system.cpu.dcache.ReadReq.mshrMisses::cpu.data         2235                       # number of ReadReq MSHR misses (Count)
system.cpu.dcache.ReadReq.mshrMisses::total         2235                       # number of ReadReq MSHR misses (Count)
system.cpu.dcache.ReadReq.mshrMissLatency::cpu.data     55717500                       # number of ReadReq MSHR miss ticks (Tick)
system.cpu.dcache.ReadReq.mshrMissLatency::total     55717500                       # number of ReadReq MSHR miss ticks (Tick)
system.cpu.dcache.ReadReq.mshrMissRate::cpu.data     0.000801                       # mshr miss rate for ReadReq accesses (Ratio)
system.cpu.dcache.ReadReq.mshrMissRate::total     0.000801                       # mshr miss rate for ReadReq accesses (Ratio)
system.cpu.dcache.ReadReq.avgMshrMissLatency::cpu.data 24929.530201                       # average ReadReq mshr miss latency ((Tick/Count))
system.cpu.dcache.ReadReq.avgMshrMissLatency::total 24929.530201                       # average ReadReq mshr miss latency ((Tick/Count))
system.cpu.dcache.StoreCondReq.hits::cpu.data          386                       # number of StoreCondReq hits (Count)
system.cpu.dcache.StoreCondReq.hits::total          386                       # number of StoreCondReq hits (Count)
system.cpu.dcache.StoreCondReq.accesses::cpu.data          386                       # number of StoreCondReq accesses(hits+misses) (Count)
system.cpu.dcache.StoreCondReq.accesses::total          386                       # number of StoreCondReq accesses(hits+misses) (Count)
system.cpu.dcache.WriteReq.hits::cpu.data      1514519                       # number of WriteReq hits (Count)
system.cpu.dcache.WriteReq.hits::total        1514519                       # number of WriteReq hits (Count)
system.cpu.dcache.WriteReq.misses::cpu.data        19100                       # number of WriteReq misses (Count)
system.cpu.dcache.WriteReq.misses::total        19100                       # number of WriteReq misses (Count)
system.cpu.dcache.WriteReq.missLatency::cpu.data   1200310989                       # number of WriteReq miss ticks (Tick)
system.cpu.dcache.WriteReq.missLatency::total   1200310989                       # number of WriteReq miss ticks (Tick)
system.cpu.dcache.WriteReq.accesses::cpu.data      1533619                       # number of WriteReq accesses(hits+misses) (Count)
system.cpu.dcache.WriteReq.accesses::total      1533619                       # number of WriteReq accesses(hits+misses) (Count)
system.cpu.dcache.WriteReq.missRate::cpu.data     0.012454                       # miss rate for WriteReq accesses (Ratio)
system.cpu.dcache.WriteReq.missRate::total     0.012454                       # miss rate for WriteReq accesses (Ratio)
system.cpu.dcache.WriteReq.avgMissLatency::cpu.data 62843.507277                       # average WriteReq miss latency ((Tick/Count))
system.cpu.dcache.WriteReq.avgMissLatency::total 62843.507277                       # average WriteReq miss latency ((Tick/Count))
system.cpu.dcache.WriteReq.mshrHits::cpu.data        17220                       # number of WriteReq MSHR hits (Count)
system.cpu.dcache.WriteReq.mshrHits::total        17220                       # number of WriteReq MSHR hits (Count)
system.cpu.dcache.WriteReq.mshrMisses::cpu.data         1880                       # number of WriteReq MSHR misses (Count)
system.cpu.dcache.WriteReq.mshrMisses::total         1880                       # number of WriteReq MSHR misses (Count)
system.cpu.dcache.WriteReq.mshrMissLatency::cpu.data    135820997                       # number of WriteReq MSHR miss ticks (Tick)
system.cpu.dcache.WriteReq.mshrMissLatency::total    135820997                       # number of WriteReq MSHR miss ticks (Tick)
system.cpu.dcache.WriteReq.mshrMissRate::cpu.data     0.001226                       # mshr miss rate for WriteReq accesses (Ratio)
system.cpu.dcache.WriteReq.mshrMissRate::total     0.001226                       # mshr miss rate for WriteReq accesses (Ratio)
system.cpu.dcache.WriteReq.avgMshrMissLatency::cpu.data 72245.211170                       # average WriteReq mshr miss latency ((Tick/Count))
system.cpu.dcache.WriteReq.avgMshrMissLatency::total 72245.211170                       # average WriteReq mshr miss latency ((Tick/Count))
system.cpu.dcache.power_state.pwrStateResidencyTicks::UNDEFINED   3858403000                       # Cumulative time (in ticks) in various power states (Tick)
system.cpu.dcache.tags.tagsInUse           496.591953                       # Average ticks per tags in use ((Tick/Count))
system.cpu.dcache.tags.totalRefs              4302434                       # Total number of references to valid blocks. (Count)
system.cpu.dcache.tags.sampledRefs               4114                       # Sample count of references to valid blocks. (Count)
system.cpu.dcache.tags.avgRefs            1045.803111                       # Average number of references to valid blocks. ((Count/Count))
system.cpu.dcache.tags.warmupTick              148500                       # The tick when the warmup percentage was hit. (Tick)
system.cpu.dcache.tags.occupancies::cpu.data   496.591953                       # Average occupied blocks per tick, per requestor ((Count/Tick))
system.cpu.dcache.tags.avgOccs::cpu.data     0.969906                       # Average percentage of cache occupancy ((Ratio/Tick))
system.cpu.dcache.tags.avgOccs::total        0.969906                       # Average percentage of cache occupancy ((Ratio/Tick))
system.cpu.dcache.tags.occupanciesTaskId::1024          512                       # Occupied blocks per task id (Count)
system.cpu.dcache.tags.ageTaskId_1024::0            4                       # Occupied blocks per task id, per block age (Count)
system.cpu.dcache.tags.ageTaskId_1024::1           41                       # Occupied blocks per task id, per block age (Count)
system.cpu.dcache.tags.ageTaskId_1024::2          467                       # Occupied blocks per task id, per block age (Count)
system.cpu.dcache.tags.ratioOccsTaskId::1024            1                       # Ratio of occupied blocks and all blocks, per task id (Ratio)
system.cpu.dcache.tags.tagAccesses            8651804                       # Number of tag accesses (Count)
system.cpu.dcache.tags.dataAccesses           8651804                       # Number of data accesses (Count)
system.cpu.dcache.tags.power_state.pwrStateResidencyTicks::UNDEFINED   3858403000                       # Cumulative time (in ticks) in various power states (Tick)
system.cpu.decode.idleCycles                  3011201                       # Number of cycles decode is idle (Cycle)
system.cpu.decode.blockedCycles               1201026                       # Number of cycles decode is blocked (Cycle)
system.cpu.decode.runCycles                   2950733                       # Number of cycles decode is running (Cycle)
system.cpu.decode.unblockCycles                268996                       # Number of cycles decode is unblocking (Cycle)
system.cpu.decode.squashCycles                 196918                       # Number of cycles decode is squashing (Cycle)
system.cpu.decode.branchResolved               973110                       # Number of times decode resolved a branch (Count)
system.cpu.decode.branchMispred                 31113                       # Number of times decode detected a branch misprediction (Count)
system.cpu.decode.decodedInsts               18465211                       # Number of instructions handled by decode (Count)
system.cpu.decode.squashedInsts                  7955                       # Number of squashed instructions handled by decode (Count)
system.cpu.fetch.icacheStallCycles            3614033                       # Number of cycles fetch is stalled on an Icache miss (Cycle)
system.cpu.fetch.insts                       16932376                       # Number of instructions fetch has processed (Count)
system.cpu.fetch.branches                     3215230                       # Number of branches that fetch encountered (Count)
system.cpu.fetch.predictedBranches            1408364                       # Number of branches that fetch has predicted taken (Count)
system.cpu.fetch.cycles                       3786291                       # Number of cycles fetch has run and was not squashing or blocked (Cycle)
system.cpu.fetch.squashCycles                  454526                       # Number of cycles fetch has spent squashing (Cycle)
system.cpu.fetch.miscStallCycles                  251                       # Number of cycles fetch has spent waiting on interrupts, or bad addresses, or out of MSHRs (Cycle)
system.cpu.fetch.pendingTrapStallCycles           988                       # Number of stall cycles due to pending traps (Cycle)
system.cpu.fetch.icacheWaitRetryStallCycles           48                       # Number of stall cycles due to full MSHR (Cycle)
system.cpu.fetch.cacheLines                   2619677                       # Number of cache lines fetched (Count)
system.cpu.fetch.icacheSquashes                109007                       # Number of outstanding Icache misses that were squashed (Count)
system.cpu.fetch.nisnDist::samples            7628874                       # Number of instructions fetched each cycle (Total) (Count)
system.cpu.fetch.nisnDist::mean              2.576509                       # Number of instructions fetched each cycle (Total) (Count)
system.cpu.fetch.nisnDist::stdev             3.288350                       # Number of instructions fetched each cycle (Total) (Count)
system.cpu.fetch.nisnDist::underflows               0      0.00%      0.00% # Number of instructions fetched each cycle (Total) (Count)
system.cpu.fetch.nisnDist::0                  4038971     52.94%     52.94% # Number of instructions fetched each cycle (Total) (Count)
system.cpu.fetch.nisnDist::1                   352451      4.62%     57.56% # Number of instructions fetched each cycle (Total) (Count)
system.cpu.fetch.nisnDist::2                   496590      6.51%     64.07% # Number of instructions fetched each cycle (Total) (Count)
system.cpu.fetch.nisnDist::3                   172339      2.26%     66.33% # Number of instructions fetched each cycle (Total) (Count)
system.cpu.fetch.nisnDist::4                   346399      4.54%     70.87% # Number of instructions fetched each cycle (Total) (Count)
system.cpu.fetch.nisnDist::5                   275936      3.62%     74.49% # Number of instructions fetched each cycle (Total) (Count)
system.cpu.fetch.nisnDist::6                   186602      2.45%     76.94% # Number of instructions fetched each cycle (Total) (Count)
system.cpu.fetch.nisnDist::7                   168362      2.21%     79.14% # Number of instructions fetched each cycle (Total) (Count)
system.cpu.fetch.nisnDist::8                  1591224     20.86%    100.00% # Number of instructions fetched each cycle (Total) (Count)
system.cpu.fetch.nisnDist::overflows                0      0.00%    100.00% # Number of instructions fetched each cycle (Total) (Count)
system.cpu.fetch.nisnDist::min_value                0                       # Number of instructions fetched each cycle (Total) (Count)
system.cpu.fetch.nisnDist::max_value                8                       # Number of instructions fetched each cycle (Total) (Count)
system.cpu.fetch.nisnDist::total              7628874                       # Number of instructions fetched each cycle (Total) (Count)
system.cpu.fetch.branchRate                  0.416653                       # Number of branch fetches per cycle (Ratio)
system.cpu.fetch.rate                        2.194220                       # Number of inst fetches per cycle ((Count/Cycle))
system.cpu.icache.demandHits::cpu.inst        2555663                       # number of demand (read+write) hits (Count)
system.cpu.icache.demandHits::total           2555663                       # number of demand (read+write) hits (Count)
system.cpu.icache.overallHits::cpu.inst       2555663                       # number of overall hits (Count)
system.cpu.icache.overallHits::total          2555663                       # number of overall hits (Count)
system.cpu.icache.demandMisses::cpu.inst        64014                       # number of demand (read+write) misses (Count)
system.cpu.icache.demandMisses::total           64014                       # number of demand (read+write) misses (Count)
system.cpu.icache.overallMisses::cpu.inst        64014                       # number of overall misses (Count)
system.cpu.icache.overallMisses::total          64014                       # number of overall misses (Count)
system.cpu.icache.demandMissLatency::cpu.inst    889613500                       # number of demand (read+write) miss ticks (Tick)
system.cpu.icache.demandMissLatency::total    889613500                       # number of demand (read+write) miss ticks (Tick)
system.cpu.icache.overallMissLatency::cpu.inst    889613500                       # number of overall miss ticks (Tick)
system.cpu.icache.overallMissLatency::total    889613500                       # number of overall miss ticks (Tick)
system.cpu.icache.demandAccesses::cpu.inst      2619677                       # number of demand (read+write) accesses (Count)
system.cpu.icache.demandAccesses::total       2619677                       # number of demand (read+write) accesses (Count)
system.cpu.icache.overallAccesses::cpu.inst      2619677                       # number of overall (read+write) accesses (Count)
system.cpu.icache.overallAccesses::total      2619677                       # number of overall (read+write) accesses (Count)
system.cpu.icache.demandMissRate::cpu.inst     0.024436                       # miss rate for demand accesses (Ratio)
system.cpu.icache.demandMissRate::total      0.024436                       # miss rate for demand accesses (Ratio)
system.cpu.icache.overallMissRate::cpu.inst     0.024436                       # miss rate for overall accesses (Ratio)
system.cpu.icache.overallMissRate::total     0.024436                       # miss rate for overall accesses (Ratio)
system.cpu.icache.demandAvgMissLatency::cpu.inst 13897.170931                       # average overall miss latency in ticks ((Tick/Count))
system.cpu.icache.demandAvgMissLatency::total 13897.170931                       # average overall miss latency in ticks ((Tick/Count))
system.cpu.icache.overallAvgMissLatency::cpu.inst 13897.170931                       # average overall miss latency ((Tick/Count))
system.cpu.icache.overallAvgMissLatency::total 13897.170931                       # average overall miss latency ((Tick/Count))
system.cpu.icache.blockedCycles::no_mshrs          953                       # number of cycles access was blocked (Cycle)
system.cpu.icache.blockedCycles::no_targets            0                       # number of cycles access was blocked (Cycle)
system.cpu.icache.blockedCauses::no_mshrs           16                       # number of times access was blocked (Count)
system.cpu.icache.blockedCauses::no_targets            0                       # number of times access was blocked (Count)
system.cpu.icache.avgBlocked::no_mshrs      59.562500                       # average number of cycles each access was blocked ((Cycle/Count))
system.cpu.icache.avgBlocked::no_targets          nan                       # average number of cycles each access was blocked ((Cycle/Count))
system.cpu.icache.demandMshrHits::cpu.inst         5420                       # number of demand (read+write) MSHR hits (Count)
system.cpu.icache.demandMshrHits::total          5420                       # number of demand (read+write) MSHR hits (Count)
system.cpu.icache.overallMshrHits::cpu.inst         5420                       # number of overall MSHR hits (Count)
system.cpu.icache.overallMshrHits::total         5420                       # number of overall MSHR hits (Count)
system.cpu.icache.demandMshrMisses::cpu.inst        58594                       # number of demand (read+write) MSHR misses (Count)
system.cpu.icache.demandMshrMisses::total        58594                       # number of demand (read+write) MSHR misses (Count)
system.cpu.icache.overallMshrMisses::cpu.inst        58594                       # number of overall MSHR misses (Count)
system.cpu.icache.overallMshrMisses::total        58594                       # number of overall MSHR misses (Count)
system.cpu.icache.demandMshrMissLatency::cpu.inst    784992500                       # number of demand (read+write) MSHR miss ticks (Tick)
system.cpu.icache.demandMshrMissLatency::total    784992500                       # number of demand (read+write) MSHR miss ticks (Tick)
system.cpu.icache.overallMshrMissLatency::cpu.inst    784992500                       # number of overall MSHR miss ticks (Tick)
system.cpu.icache.overallMshrMissLatency::total    784992500                       # number of overall MSHR miss ticks (Tick)
system.cpu.icache.demandMshrMissRate::cpu.inst     0.022367                       # mshr miss ratio for demand accesses (Ratio)
system.cpu.icache.demandMshrMissRate::total     0.022367                       # mshr miss ratio for demand accesses (Ratio)
system.cpu.icache.overallMshrMissRate::cpu.inst     0.022367                       # mshr miss ratio for overall accesses (Ratio)
system.cpu.icache.overallMshrMissRate::total     0.022367                       # mshr miss ratio for overall accesses (Ratio)
system.cpu.icache.demandAvgMshrMissLatency::cpu.inst 13397.148172                       # average overall mshr miss latency ((Tick/Count))
system.cpu.icache.demandAvgMshrMissLatency::total 13397.148172                       # average overall mshr miss latency ((Tick/Count))
system.cpu.icache.overallAvgMshrMissLatency::cpu.inst 13397.148172                       # average overall mshr miss latency ((Tick/Count))
system.cpu.icache.overallAvgMshrMissLatency::total 13397.148172                       # average overall mshr miss latency ((Tick/Count))
system.cpu.icache.replacements                  58088                       # number of replacements (Count)
system.cpu.icache.ReadReq.hits::cpu.inst      2555663                       # number of ReadReq hits (Count)
system.cpu.icache.ReadReq.hits::total         2555663                       # number of ReadReq hits (Count)
system.cpu.icache.ReadReq.misses::cpu.inst        64014                       # number of ReadReq misses (Count)
system.cpu.icache.ReadReq.misses::total         64014                       # number of ReadReq misses (Count)
system.cpu.icache.ReadReq.missLatency::cpu.inst    889613500                       # number of ReadReq miss ticks (Tick)
system.cpu.icache.ReadReq.missLatency::total    889613500                       # number of ReadReq miss ticks (Tick)
system.cpu.icache.ReadReq.accesses::cpu.inst      2619677                       # number of ReadReq accesses(hits+misses) (Count)
system.cpu.icache.ReadReq.accesses::total      2619677                       # number of ReadReq accesses(hits+misses) (Count)
system.cpu.icache.ReadReq.missRate::cpu.inst     0.024436                       # miss rate for ReadReq accesses (Ratio)
system.cpu.icache.ReadReq.missRate::total     0.024436                       # miss rate for ReadReq accesses (Ratio)
system.cpu.icache.ReadReq.avgMissLatency::cpu.inst 13897.170931                       # average ReadReq miss latency ((Tick/Count))
system.cpu.icache.ReadReq.avgMissLatency::total 13897.170931                       # average ReadReq miss latency ((Tick/Count))
system.cpu.icache.ReadReq.mshrHits::cpu.inst         5420                       # number of ReadReq MSHR hits (Count)
system.cpu.icache.ReadReq.mshrHits::total         5420                       # number of ReadReq MSHR hits (Count)
system.cpu.icache.ReadReq.mshrMisses::cpu.inst        58594                       # number of ReadReq MSHR misses (Count)
system.cpu.icache.ReadReq.mshrMisses::total        58594                       # number of ReadReq MSHR misses (Count)
system.cpu.icache.ReadReq.mshrMissLatency::cpu.inst    784992500                       # number of ReadReq MSHR miss ticks (Tick)
system.cpu.icache.ReadReq.mshrMissLatency::total    784992500                       # number of ReadReq MSHR miss ticks (Tick)
system.cpu.icache.ReadReq.mshrMissRate::cpu.inst     0.022367                       # mshr miss rate for ReadReq accesses (Ratio)
system.cpu.icache.ReadReq.mshrMissRate::total     0.022367                       # mshr miss rate for ReadReq accesses (Ratio)
system.cpu.icache.ReadReq.avgMshrMissLatency::cpu.inst 13397.148172                       # average ReadReq mshr miss latency ((Tick/Count))
system.cpu.icache.ReadReq.avgMshrMissLatency::total 13397.148172                       # average ReadReq mshr miss latency ((Tick/Count))
system.cpu.icache.power_state.pwrStateResidencyTicks::UNDEFINED   3858403000                       # Cumulative time (in ticks) in various power states (Tick)
system.cpu.icache.tags.tagsInUse           502.310395                       # Average ticks per tags in use ((Tick/Count))
system.cpu.icache.tags.totalRefs              2614257                       # Total number of references to valid blocks. (Count)
system.cpu.icache.tags.sampledRefs              58594                       # Sample count of references to valid blocks. (Count)
system.cpu.icache.tags.avgRefs              44.616462                       # Average number of references to valid blocks. ((Count/Count))
system.cpu.icache.tags.warmupTick               81500                       # The tick when the warmup percentage was hit. (Tick)
system.cpu.icache.tags.occupancies::cpu.inst   502.310395                       # Average occupied blocks per tick, per requestor ((Count/Tick))
system.cpu.icache.tags.avgOccs::cpu.inst     0.981075                       # Average percentage of cache occupancy ((Ratio/Tick))
system.cpu.icache.tags.avgOccs::total        0.981075                       # Average percentage of cache occupancy ((Ratio/Tick))
system.cpu.icache.tags.occupanciesTaskId::1024          505                       # Occupied blocks per task id (Count)
system.cpu.icache.tags.ageTaskId_1024::0           12                       # Occupied blocks per task id, per block age (Count)
system.cpu.icache.tags.ageTaskId_1024::1            2                       # Occupied blocks per task id, per block age (Count)
system.cpu.icache.tags.ageTaskId_1024::2           21                       # Occupied blocks per task id, per block age (Count)
system.cpu.icache.tags.ageTaskId_1024::3          470                       # Occupied blocks per task id, per block age (Count)
system.cpu.icache.tags.ratioOccsTaskId::1024     0.986328                       # Ratio of occupied blocks and all blocks, per task id (Ratio)
system.cpu.icache.tags.tagAccesses            5297948                       # Number of tag accesses (Count)
system.cpu.icache.tags.dataAccesses           5297948                       # Number of data accesses (Count)
system.cpu.icache.tags.power_state.pwrStateResidencyTicks::UNDEFINED   3858403000                       # Cumulative time (in ticks) in various power states (Tick)
system.cpu.iew.idleCycles                           0                       # Number of cycles IEW is idle (Cycle)
system.cpu.iew.squashCycles                    196918                       # Number of cycles IEW is squashing (Cycle)
system.cpu.iew.blockCycles                     582638                       # Number of cycles IEW is blocking (Cycle)
system.cpu.iew.unblockCycles                    25879                       # Number of cycles IEW is unblocking (Cycle)
system.cpu.iew.dispatchedInsts               16658832                       # Number of instructions dispatched to IQ (Count)
system.cpu.iew.dispSquashedInsts                43907                       # Number of squashed instructions skipped by dispatch (Count)
system.cpu.iew.dispLoadInsts                  3745943                       # Number of dispatched load instructions (Count)
system.cpu.iew.dispStoreInsts                 2329139                       # Number of dispatched store instructions (Count)
system.cpu.iew.dispNonSpecInsts                  1017                       # Number of dispatched non-speculative instructions (Count)
system.cpu.iew.iqFullEvents                       470                       # Number of times the IQ has become full, causing a stall (Count)
system.cpu.iew.lsqFullEvents                    25300                       # Number of times the LSQ has become full, causing a stall (Count)
system.cpu.iew.memOrderViolationEvents            624                       # Number of memory order violations (Count)
system.cpu.iew.predictedTakenIncorrect          92826                       # Number of branches that were predicted taken incorrectly (Count)
system.cpu.iew.predictedNotTakenIncorrect       127271                       # Number of branches that were predicted not taken incorrectly (Count)
system.cpu.iew.branchMispredicts               220097                       # Number of branch mispredicts detected at execute (Count)
system.cpu.iew.instsToCommit                 13861974                       # Cumulative count of insts sent to commit (Count)
system.cpu.iew.writebackCount                13792869                       # Cumulative count of insts written-back (Count)
system.cpu.iew.producerInst                   7974870                       # Number of instructions producing a value (Count)
system.cpu.iew.consumerInst                  13935219                       # Number of instructions consuming a value (Count)
system.cpu.iew.wbRate                        1.787380                       # Insts written-back per cycle ((Count/Cycle))
system.cpu.iew.wbFanout                      0.572282                       # Average fanout of values written-back ((Count/Count))
system.cpu.lsq0.forwLoads                      310884                       # Number of loads that had data forwarded from stores (Count)
system.cpu.lsq0.squashedLoads                 1259518                       # Number of loads squashed (Count)
system.cpu.lsq0.ignoredResponses                 3985                       # Number of memory responses ignored because the instruction is squashed (Count)
system.cpu.lsq0.memOrderViolation                 624                       # Number of memory ordering violations (Count)
system.cpu.lsq0.squashedStores                 763577                       # Number of stores squashed (Count)
system.cpu.lsq0.rescheduledLoads               194997                       # Number of loads that were rescheduled (Count)
system.cpu.lsq0.blockedByCache                     38                       # Number of times an access to memory failed due to the cache being blocked (Count)
system.cpu.lsq0.loadToUse::samples            2486408                       # Distribution of cycle latency between the first time a load is issued and its completion (Unspecified)
system.cpu.lsq0.loadToUse::mean              3.628429                       # Distribution of cycle latency between the first time a load is issued and its completion (Unspecified)
system.cpu.lsq0.loadToUse::stdev             3.807722                       # Distribution of cycle latency between the first time a load is issued and its completion (Unspecified)
system.cpu.lsq0.loadToUse::0-9                2436200     97.98%     97.98% # Distribution of cycle latency between the first time a load is issued and its completion (Unspecified)
system.cpu.lsq0.loadToUse::10-19                25912      1.04%     99.02% # Distribution of cycle latency between the first time a load is issued and its completion (Unspecified)
system.cpu.lsq0.loadToUse::20-29                22576      0.91%     99.93% # Distribution of cycle latency between the first time a load is issued and its completion (Unspecified)
system.cpu.lsq0.loadToUse::30-39                  720      0.03%     99.96% # Distribution of cycle latency between the first time a load is issued and its completion (Unspecified)
system.cpu.lsq0.loadToUse::40-49                  217      0.01%     99.97% # Distribution of cycle latency between the first time a load is issued and its completion (Unspecified)
system.cpu.lsq0.loadToUse::50-59                  113      0.00%     99.97% # Distribution of cycle latency between the first time a load is issued and its completion (Unspecified)
system.cpu.lsq0.loadToUse::60-69                   25      0.00%     99.97% # Distribution of cycle latency between the first time a load is issued and its completion (Unspecified)
system.cpu.lsq0.loadToUse::70-79                    8      0.00%     99.97% # Distribution of cycle latency between the first time a load is issued and its completion (Unspecified)
system.cpu.lsq0.loadToUse::80-89                   26      0.00%     99.98% # Distribution of cycle latency between the first time a load is issued and its completion (Unspecified)
system.cpu.lsq0.loadToUse::90-99                   12      0.00%     99.98% # Distribution of cycle latency between the first time a load is issued and its completion (Unspecified)
system.cpu.lsq0.loadToUse::100-109                  8      0.00%     99.98% # Distribution of cycle latency between the first time a load is issued and its completion (Unspecified)
system.cpu.lsq0.loadToUse::110-119                 18      0.00%     99.98% # Distribution of cycle latency between the first time a load is issued and its completion (Unspecified)
system.cpu.lsq0.loadToUse::120-129                 34      0.00%     99.98% # Distribution of cycle latency between the first time a load is issued and its completion (Unspecified)
system.cpu.lsq0.loadToUse::130-139                242      0.01%     99.99% # Distribution of cycle latency between the first time a load is issued and its completion (Unspecified)
system.cpu.lsq0.loadToUse::140-149                 53      0.00%     99.99% # Distribution of cycle latency between the first time a load is issued and its completion (Unspecified)
system.cpu.lsq0.loadToUse::150-159                 23      0.00%     99.99% # Distribution of cycle latency between the first time a load is issued and its completion (Unspecified)
system.cpu.lsq0.loadToUse::160-169                117      0.00%    100.00% # Distribution of cycle latency between the first time a load is issued and its completion (Unspecified)
system.cpu.lsq0.loadToUse::170-179                 14      0.00%    100.00% # Distribution of cycle latency between the first time a load is issued and its completion (Unspecified)
system.cpu.lsq0.loadToUse::180-189                 41      0.00%    100.00% # Distribution of cycle latency between the first time a load is issued and its completion (Unspecified)
system.cpu.lsq0.loadToUse::190-199                 18      0.00%    100.00% # Distribution of cycle latency between the first time a load is issued and its completion (Unspecified)
[...]
system.mem_ctrl.dram.perBankRdBursts::6           137                       # Per bank write bursts (Count)
system.mem_ctrl.dram.perBankRdBursts::7           161                       # Per bank write bursts (Count)
system.mem_ctrl.dram.perBankRdBursts::8           185                       # Per bank write bursts (Count)
system.mem_ctrl.dram.perBankRdBursts::9           188                       # Per bank write bursts (Count)
system.mem_ctrl.dram.perBankRdBursts::10          184                       # Per bank write bursts (Count)
system.mem_ctrl.dram.perBankRdBursts::11           85                       # Per bank write bursts (Count)
system.mem_ctrl.dram.perBankRdBursts::12          145                       # Per bank write bursts (Count)
system.mem_ctrl.dram.perBankRdBursts::13          130                       # Per bank write bursts (Count)
system.mem_ctrl.dram.perBankRdBursts::14          151                       # Per bank write bursts (Count)
system.mem_ctrl.dram.perBankRdBursts::15          171                       # Per bank write bursts (Count)
system.mem_ctrl.dram.perBankRdBursts::16           31                       # Per bank write bursts (Count)
system.mem_ctrl.dram.perBankRdBursts::17           35                       # Per bank write bursts (Count)
system.mem_ctrl.dram.perBankRdBursts::18           68                       # Per bank write bursts (Count)
system.mem_ctrl.dram.perBankRdBursts::19           16                       # Per bank write bursts (Count)
system.mem_ctrl.dram.perBankRdBursts::20           17                       # Per bank write bursts (Count)
system.mem_ctrl.dram.perBankRdBursts::21           68                       # Per bank write bursts (Count)
system.mem_ctrl.dram.perBankRdBursts::22           30                       # Per bank write bursts (Count)
system.mem_ctrl.dram.perBankRdBursts::23           18                       # Per bank write bursts (Count)
system.mem_ctrl.dram.perBankRdBursts::24            4                       # Per bank write bursts (Count)
system.mem_ctrl.dram.perBankRdBursts::25           79                       # Per bank write bursts (Count)
system.mem_ctrl.dram.perBankRdBursts::26           90                       # Per bank write bursts (Count)
system.mem_ctrl.dram.perBankRdBursts::27           20                       # Per bank write bursts (Count)
system.mem_ctrl.dram.perBankRdBursts::28           31                       # Per bank write bursts (Count)
system.mem_ctrl.dram.perBankRdBursts::29           80                       # Per bank write bursts (Count)
system.mem_ctrl.dram.perBankRdBursts::30           94                       # Per bank write bursts (Count)
system.mem_ctrl.dram.perBankRdBursts::31          126                       # Per bank write bursts (Count)
system.mem_ctrl.dram.perBankWrBursts::0             0                       # Per bank write bursts (Count)
system.mem_ctrl.dram.perBankWrBursts::1             0                       # Per bank write bursts (Count)
system.mem_ctrl.dram.perBankWrBursts::2             0                       # Per bank write bursts (Count)
system.mem_ctrl.dram.perBankWrBursts::3             0                       # Per bank write bursts (Count)
system.mem_ctrl.dram.perBankWrBursts::4             0                       # Per bank write bursts (Count)
system.mem_ctrl.dram.perBankWrBursts::5             0                       # Per bank write bursts (Count)
system.mem_ctrl.dram.perBankWrBursts::6             0                       # Per bank write bursts (Count)
system.mem_ctrl.dram.perBankWrBursts::7             0                       # Per bank write bursts (Count)
system.mem_ctrl.dram.perBankWrBursts::8             0                       # Per bank write bursts (Count)
system.mem_ctrl.dram.perBankWrBursts::9             0                       # Per bank write bursts (Count)
system.mem_ctrl.dram.perBankWrBursts::10            0                       # Per bank write bursts (Count)
system.mem_ctrl.dram.perBankWrBursts::11            0                       # Per bank write bursts (Count)
system.mem_ctrl.dram.perBankWrBursts::12            0                       # Per bank write bursts (Count)
system.mem_ctrl.dram.perBankWrBursts::13            0                       # Per bank write bursts (Count)
system.mem_ctrl.dram.perBankWrBursts::14            0                       # Per bank write bursts (Count)
system.mem_ctrl.dram.perBankWrBursts::15            0                       # Per bank write bursts (Count)
system.mem_ctrl.dram.perBankWrBursts::16            0                       # Per bank write bursts (Count)
system.mem_ctrl.dram.perBankWrBursts::17            0                       # Per bank write bursts (Count)
system.mem_ctrl.dram.perBankWrBursts::18            0                       # Per bank write bursts (Count)
system.mem_ctrl.dram.perBankWrBursts::19            0                       # Per bank write bursts (Count)
system.mem_ctrl.dram.perBankWrBursts::20            0                       # Per bank write bursts (Count)
system.mem_ctrl.dram.perBankWrBursts::21            0                       # Per bank write bursts (Count)
system.mem_ctrl.dram.perBankWrBursts::22            0                       # Per bank write bursts (Count)
system.mem_ctrl.dram.perBankWrBursts::23            0                       # Per bank write bursts (Count)
system.mem_ctrl.dram.perBankWrBursts::24            0                       # Per bank write bursts (Count)
system.mem_ctrl.dram.perBankWrBursts::25            0                       # Per bank write bursts (Count)
system.mem_ctrl.dram.perBankWrBursts::26            0                       # Per bank write bursts (Count)
system.mem_ctrl.dram.perBankWrBursts::27            0                       # Per bank write bursts (Count)
system.mem_ctrl.dram.perBankWrBursts::28            0                       # Per bank write bursts (Count)
system.mem_ctrl.dram.perBankWrBursts::29            0                       # Per bank write bursts (Count)
system.mem_ctrl.dram.perBankWrBursts::30            0                       # Per bank write bursts (Count)
system.mem_ctrl.dram.perBankWrBursts::31            0                       # Per bank write bursts (Count)
system.mem_ctrl.dram.totQLat                 33596230                       # Total ticks spent queuing (Tick)
system.mem_ctrl.dram.totBusLat               11275488                       # Total ticks spent in databus transfers (Tick)
system.mem_ctrl.dram.totMemAccLat            92789158                       # Total ticks spent from burst creation until serviced by the DRAM (Tick)
system.mem_ctrl.dram.avgQLat                  9927.96                       # Average queueing delay per DRAM burst ((Tick/Count))
system.mem_ctrl.dram.avgBusLat                3332.00                       # Average bus latency per DRAM burst ((Tick/Count))
system.mem_ctrl.dram.avgMemAccLat            27419.96                       # Average memory access latency per DRAM burst ((Tick/Count))
system.mem_ctrl.dram.readRowHits                 2410                       # Number of row buffer hits during reads (Count)
system.mem_ctrl.dram.writeRowHits                   0                       # Number of row buffer hits during writes (Count)
system.mem_ctrl.dram.readRowHitRate             71.22                       # Row buffer hit rate for reads (Ratio)
system.mem_ctrl.dram.writeRowHitRate              nan                       # Row buffer hit rate for writes (Ratio)
system.mem_ctrl.dram.bytesPerActivate::samples          973                       # Bytes accessed per row activation (Byte)
system.mem_ctrl.dram.bytesPerActivate::mean   222.520041                       # Bytes accessed per row activation (Byte)
system.mem_ctrl.dram.bytesPerActivate::gmean   128.709328                       # Bytes accessed per row activation (Byte)
system.mem_ctrl.dram.bytesPerActivate::stdev   289.428408                       # Bytes accessed per row activation (Byte)
system.mem_ctrl.dram.bytesPerActivate::0-127          511     52.52%     52.52% # Bytes accessed per row activation (Byte)
system.mem_ctrl.dram.bytesPerActivate::128-255          242     24.87%     77.39% # Bytes accessed per row activation (Byte)
system.mem_ctrl.dram.bytesPerActivate::256-383           47      4.83%     82.22% # Bytes accessed per row activation (Byte)
system.mem_ctrl.dram.bytesPerActivate::384-511           32      3.29%     85.51% # Bytes accessed per row activation (Byte)
system.mem_ctrl.dram.bytesPerActivate::512-639           19      1.95%     87.46% # Bytes accessed per row activation (Byte)
system.mem_ctrl.dram.bytesPerActivate::640-767           24      2.47%     89.93% # Bytes accessed per row activation (Byte)
system.mem_ctrl.dram.bytesPerActivate::768-895           10      1.03%     90.96% # Bytes accessed per row activation (Byte)
system.mem_ctrl.dram.bytesPerActivate::896-1023            7      0.72%     91.68% # Bytes accessed per row activation (Byte)
system.mem_ctrl.dram.bytesPerActivate::1024-1151           81      8.32%    100.00% # Bytes accessed per row activation (Byte)
system.mem_ctrl.dram.bytesPerActivate::total          973                       # Bytes accessed per row activation (Byte)
system.mem_ctrl.dram.bytesRead                 216576                       # Total bytes read (Byte)
system.mem_ctrl.dram.bytesWritten                   0                       # Total bytes written (Byte)
system.mem_ctrl.dram.avgRdBW                56.130995                       # Average DRAM read bandwidth in MiBytes/s ((Byte/Second))
system.mem_ctrl.dram.avgWrBW                        0                       # Average DRAM write bandwidth in MiBytes/s ((Byte/Second))
system.mem_ctrl.dram.peakBW                  19207.00                       # Theoretical peak bandwidth in MiByte/s ((Byte/Second))
system.mem_ctrl.dram.busUtil                     0.29                       # Data bus utilization in percentage (Ratio)
system.mem_ctrl.dram.busUtilRead                 0.29                       # Data bus utilization in percentage for reads (Ratio)
system.mem_ctrl.dram.busUtilWrite                0.00                       # Data bus utilization in percentage for writes (Ratio)
system.mem_ctrl.dram.pageHitRate                71.22                       # Row buffer hit rate, read and write combined (Ratio)
system.mem_ctrl.dram.power_state.pwrStateResidencyTicks::UNDEFINED   3858403000                       # Cumulative time (in ticks) in various power states (Tick)
system.mem_ctrl.dram.rank0.actEnergy     2548020.384000                       # Energy for activate commands per rank (pJ) (Joule)
system.mem_ctrl.dram.rank0.preEnergy     3383414.092800                       # Energy for precharge commands per rank (pJ) (Joule)
system.mem_ctrl.dram.rank0.readEnergy    10839678.393600                       # Energy for read commands per rank (pJ) (Joule)
system.mem_ctrl.dram.rank0.writeEnergy              0                       # Energy for write commands per rank (pJ) (Joule)
system.mem_ctrl.dram.rank0.refreshEnergy 685761925.464003                       # Energy for refresh commands per rank (pJ) (Joule)
system.mem_ctrl.dram.rank0.actBackEnergy 2141064835.358397                       # Energy for active background per rank (pJ) (Joule)
system.mem_ctrl.dram.rank0.preBackEnergy 873653854.617601                       # Energy for precharge background per rank (pJ) (Joule)
system.mem_ctrl.dram.rank0.actPowerDownEnergy            0                       # Energy for active power-down per rank (pJ) (Joule)
system.mem_ctrl.dram.rank0.prePowerDownEnergy            0                       # Energy for precharge power-down per rank (pJ) (Joule)
system.mem_ctrl.dram.rank0.selfRefreshEnergy            0                       # Energy for self refresh per rank (pJ) (Joule)
system.mem_ctrl.dram.rank0.totalEnergy   3717251728.310398                       # Total energy per rank (pJ) (Joule)
system.mem_ctrl.dram.rank0.averagePower    963.417178                       # Core power per rank (mW) (Watt)
system.mem_ctrl.dram.rank0.totalIdleTime            0                       # Total Idle time Per DRAM Rank (Tick)
system.mem_ctrl.dram.rank0.pwrStateTime::IDLE   1324470602                       # Time in different power states (Tick)
system.mem_ctrl.dram.rank0.pwrStateTime::REF    173250000                       # Time in different power states (Tick)
system.mem_ctrl.dram.rank0.pwrStateTime::SREF            0                       # Time in different power states (Tick)
system.mem_ctrl.dram.rank0.pwrStateTime::PRE_PDN            0                       # Time in different power states (Tick)
system.mem_ctrl.dram.rank0.pwrStateTime::ACT   2360682398                       # Time in different power states (Tick)
system.mem_ctrl.dram.rank0.pwrStateTime::ACT_PDN            0                       # Time in different power states (Tick)
system.mem_ctrl.dram.rank1.actEnergy     489644.064000                       # Energy for activate commands per rank (pJ) (Joule)
system.mem_ctrl.dram.rank1.preEnergy     650975.505600                       # Energy for precharge commands per rank (pJ) (Joule)
system.mem_ctrl.dram.rank1.readEnergy    3394497.657600                       # Energy for read commands per rank (pJ) (Joule)
system.mem_ctrl.dram.rank1.writeEnergy              0                       # Energy for write commands per rank (pJ) (Joule)
system.mem_ctrl.dram.rank1.refreshEnergy 685761925.464003                       # Energy for refresh commands per rank (pJ) (Joule)
system.mem_ctrl.dram.rank1.actBackEnergy 278912606.313595                       # Energy for active background per rank (pJ) (Joule)
system.mem_ctrl.dram.rank1.preBackEnergy 2304460087.104010                       # Energy for precharge background per rank (pJ) (Joule)
system.mem_ctrl.dram.rank1.actPowerDownEnergy            0                       # Energy for active power-down per rank (pJ) (Joule)
system.mem_ctrl.dram.rank1.prePowerDownEnergy            0                       # Energy for precharge power-down per rank (pJ) (Joule)
system.mem_ctrl.dram.rank1.selfRefreshEnergy            0                       # Energy for self refresh per rank (pJ) (Joule)
system.mem_ctrl.dram.rank1.totalEnergy   3273669736.108802                       # Total energy per rank (pJ) (Joule)
system.mem_ctrl.dram.rank1.averagePower    848.451998                       # Core power per rank (mW) (Watt)
system.mem_ctrl.dram.rank1.totalIdleTime            0                       # Total Idle time Per DRAM Rank (Tick)
system.mem_ctrl.dram.rank1.pwrStateTime::IDLE   3523049800                       # Time in different power states (Tick)
system.mem_ctrl.dram.rank1.pwrStateTime::REF    173250000                       # Time in different power states (Tick)
system.mem_ctrl.dram.rank1.pwrStateTime::SREF            0                       # Time in different power states (Tick)
system.mem_ctrl.dram.rank1.pwrStateTime::PRE_PDN            0                       # Time in different power states (Tick)
system.mem_ctrl.dram.rank1.pwrStateTime::ACT    162103200                       # Time in different power states (Tick)
system.mem_ctrl.dram.rank1.pwrStateTime::ACT_PDN            0                       # Time in different power states (Tick)
system.mem_ctrl.power_state.pwrStateResidencyTicks::UNDEFINED   3858403000                       # Cumulative time (in ticks) in various power states (Tick)
system.membus.transDist::ReadResp                1600                       # Transaction distribution (Count)
system.membus.transDist::WritebackDirty            11                       # Transaction distribution (Count)
system.membus.transDist::CleanEvict               116                       # Transaction distribution (Count)
system.membus.transDist::ReadExReq               1785                       # Transaction distribution (Count)
system.membus.transDist::ReadExResp              1785                       # Transaction distribution (Count)
system.membus.transDist::ReadSharedReq           1600                       # Transaction distribution (Count)
system.membus.pktCount_system.l2cache.mem_side_port::system.mem_ctrl.port         6897                       # Packet count per connected requestor and responder (Count)
system.membus.pktCount::total                    6897                       # Packet count per connected requestor and responder (Count)
system.membus.pktSize_system.l2cache.mem_side_port::system.mem_ctrl.port       217344                       # Cumulative packet size per connected requestor and responder (Byte)
system.membus.pktSize::total                   217344                       # Cumulative packet size per connected requestor and responder (Byte)
system.membus.snoops                                0                       # Total snoops (Count)
system.membus.snoopTraffic                          0                       # Total snoop traffic (Byte)
system.membus.snoopFanout::samples               3385                       # Request fanout histogram (Count)
system.membus.snoopFanout::mean                     0                       # Request fanout histogram (Count)
system.membus.snoopFanout::stdev                    0                       # Request fanout histogram (Count)
system.membus.snoopFanout::underflows               0      0.00%      0.00% # Request fanout histogram (Count)
system.membus.snoopFanout::0                     3385    100.00%    100.00% # Request fanout histogram (Count)
system.membus.snoopFanout::1                        0      0.00%    100.00% # Request fanout histogram (Count)
system.membus.snoopFanout::overflows                0      0.00%    100.00% # Request fanout histogram (Count)
system.membus.snoopFanout::min_value                0                       # Request fanout histogram (Count)
system.membus.snoopFanout::max_value                0                       # Request fanout histogram (Count)
system.membus.snoopFanout::total                 3385                       # Request fanout histogram (Count)
system.membus.power_state.pwrStateResidencyTicks::UNDEFINED   3858403000                       # Cumulative time (in ticks) in various power states (Tick)
system.membus.reqLayer0.occupancy             1778000                       # Layer occupancy (ticks) (Tick)
system.membus.reqLayer0.utilization               0.0                       # Layer utilization (Ratio)
system.membus.respLayer0.occupancy            8837342                       # Layer occupancy (ticks) (Tick)
system.membus.respLayer0.utilization              0.0                       # Layer utilization (Ratio)
system.membus.snoop_filter.totRequests           3512                       # Total number of requests made to the snoop filter. (Count)
system.membus.snoop_filter.hitSingleRequests          127                       # Number of requests hitting in the snoop filter with a single holder of the requested data. (Count)
system.membus.snoop_filter.hitMultiRequests            0                       # Number of requests hitting in the snoop filter with multiple (>1) holders of the requested data. (Count)
system.membus.snoop_filter.totSnoops                0                       # Total number of snoops made to the snoop filter. (Count)
system.membus.snoop_filter.hitSingleSnoops            0                       # Number of snoops hitting in the snoop filter with a single holder of the requested data. (Count)
system.membus.snoop_filter.hitMultiSnoops            0                       # Number of snoops hitting in the snoop filter with multiple (>1) holders of the requested data. (Count)
system.workload.inst.arm                            0                       # number of arm instructions executed (Count)
system.workload.inst.quiesce                        0                       # number of quiesce instructions executed (Count)

---------- End Simulation Statistics   ----------
