
---------- Begin Simulation Statistics ----------
simSeconds                                   0.003869                       # Number of seconds simulated (Second)
simTicks                                   3868547500                       # Number of ticks simulated (Tick)
finalTick                                  3868547500                       # Number of ticks from beginning of simulation (restored from checkpoints and never reset) (Tick)
simFreq                                  1000000000000                       # The number of ticks per simulated second ((Tick/Second))
hostSeconds                                     30.04                       # Real time elapsed on the host (Second)
hostTickRate                                128783287                       # The number of ticks simulated per host second (ticks/s) ((Tick/Second))
hostMemory                                    2270872                       # Number of bytes of host memory used (Byte)
simInsts                                     10000000                       # Number of instructions simulated (Count)
simOps                                       11441040                       # Number of ops (including micro ops) simulated (Count)
hostInstRate                                   332898                       # Simulator instruction rate (inst/s) ((Count/Second))
hostOpRate                                     380869                       # Simulator op (including micro ops) rate (op/s) ((Count/Second))
system.clk_domain.clock                           500                       # Clock period in ticks (Tick)
system.clk_domain.voltage_domain.voltage            1                       # Voltage in Volts (Volt)
system.cpu.numCycles                          7737096                       # Number of cpu cycles simulated (Cycle)
system.cpu.numWorkItemsStarted                      0                       # Number of work items this cpu started (Count)
system.cpu.numWorkItemsCompleted                    0                       # Number of work items this cpu completed (Count)
system.cpu.instsAdded                        16682531                       # Number of instructions added to the IQ (excludes non-spec) (Count)
system.cpu.nonSpecInstsAdded                     1487                       # Number of non-speculative instructions added to the IQ (Count)
system.cpu.instsIssued                       14594885                       # Number of instructions issued (Count)
system.cpu.squashedInstsIssued                  36864                       # Number of squashed instructions issued (Count)
system.cpu.squashedInstsExamined              5242973                       # Number of squashed instructions iterated over during squash; mainly for profiling (Count)
system.cpu.squashedOperandsExamined          12522294                       # Number of squashed operands that are examined and possibly removed from graph (Count)
system.cpu.squashedNonSpecRemoved                 691                       # Number of squashed non-spec instructions that were removed (Count)
system.cpu.numIssuedDist::samples             7650684                       # Number of insts issued each cycle (Count)
system.cpu.numIssuedDist::mean               1.907658                       # Number of insts issued each cycle (Count)
system.cpu.numIssuedDist::stdev              1.939666                       # Number of insts issued each cycle (Count)
system.cpu.numIssuedDist::underflows                0      0.00%      0.00% # Number of insts issued each cycle (Count)
system.cpu.numIssuedDist::0                   2517014     32.90%     32.90% # Number of insts issued each cycle (Count)
system.cpu.numIssuedDist::1                   1370036     17.91%     50.81% # Number of insts issued each cycle (Count)
system.cpu.numIssuedDist::2                   1257364     16.43%     67.24% # Number of insts issued each cycle (Count)
system.cpu.numIssuedDist::3                    930004     12.16%     79.40% # Number of insts issued each cycle (Count)
system.cpu.numIssuedDist::4                    667492      8.72%     88.12% # Number of insts issued each cycle (Count)
system.cpu.numIssuedDist::5                    465367      6.08%     94.20% # Number of insts issued each cycle (Count)
system.cpu.numIssuedDist::6                    261929      3.42%     97.63% # Number of insts issued each cycle (Count)
system.cpu.numIssuedDist::7                    100092      1.31%     98.94% # Number of insts issued each cycle (Count)
system.cpu.numIssuedDist::8                     81386      1.06%    100.00% # Number of insts issued each cycle (Count)
system.cpu.numIssuedDist::overflows                 0      0.00%    100.00% # Number of insts issued each cycle (Count)
system.cpu.numIssuedDist::min_value                 0                       # Number of insts issued each cycle (Count)
system.cpu.numIssuedDist::max_value                 8                       # Number of insts issued each cycle (Count)
system.cpu.numIssuedDist::total               7650684                       # Number of insts issued each cycle (Count)
system.cpu.statFuBusy::No_OpClass                   0      0.00%      0.00% # attempts to use FU when none available (Count)
system.cpu.statFuBusy::IntAlu                   23679     12.10%     12.10% # attempts to use FU when none available (Count)
system.cpu.statFuBusy::IntMult                      0      0.00%     12.10% # attempts to use FU when none available (Count)
system.cpu.statFuBusy::IntDiv                       0      0.00%     12.10% # attempts to use FU when none available (Count)
system.cpu.statFuBusy::FloatAdd                     0      0.00%     12.10% # attempts to use FU when none available (Count)
system.cpu.statFuBusy::FloatCmp                     0      0.00%     12.10% # attempts to use FU when none available (Count)
system.cpu.statFuBusy::FloatCvt                     0      0.00%     12.10% # attempts to use FU when none available (Count)
system.cpu.statFuBusy::FloatMult                    0      0.00%     12.10% # attempts to use FU when none available (Count)
system.cpu.statFuBusy::FloatMultAcc                 0      0.00%     12.10% # attempts to use FU when none available (Count)
system.cpu.statFuBusy::FloatDiv                     0      0.00%     12.10% # attempts to use FU when none available (Count)
system.cpu.statFuBusy::FloatMisc                    0      0.00%     12.10% # attempts to use FU when none available (Count)
system.cpu.statFuBusy::FloatSqrt                    0      0.00%     12.10% # attempts to use FU when none available (Count)
system.cpu.statFuBusy::SimdAdd                      0      0.00%     12.10% # attempts to use FU when none available (Count)
system.cpu.statFuBusy::SimdAddAcc                   0      0.00%     12.10% # attempts to use FU when none available (Count)
system.cpu.statFuBusy::SimdAlu                      0      0.00%     12.10% # attempts to use FU when none available (Count)
system.cpu.statFuBusy::SimdCmp                      0      0.00%     12.10% # attempts to use FU when none available (Count)
system.cpu.statFuBusy::SimdCvt                      0      0.00%     12.10% # attempts to use FU when none available (Count)
system.cpu.statFuBusy::SimdMisc                     0      0.00%     12.10% # attempts to use FU when none available (Count)
system.cpu.statFuBusy::SimdMult                     0      0.00%     12.10% # attempts to use FU when none available (Count)
system.cpu.statFuBusy::SimdMultAcc                  0      0.00%     12.10% # attempts to use FU when none available (Count)
system.cpu.statFuBusy::SimdShift                    0      0.00%     12.10% # attempts to use FU when none available (Count)
system.cpu.statFuBusy::SimdShiftAcc                 0      0.00%     12.10% # attempts to use FU when none available (Count)
system.cpu.statFuBusy::SimdDiv                      0      0.00%     12.10% # attempts to use FU when none available (Count)
system.cpu.statFuBusy::SimdSqrt                     0      0.00%     12.10% # attempts to use FU when none available (Count)
system.cpu.statFuBusy::SimdFloatAdd                 0      0.00%     12.10% # attempts to use FU when none available (Count)
system.cpu.statFuBusy::SimdFloatAlu                 0      0.00%     12.10% # attempts to use FU when none available (Count)
system.cpu.statFuBusy::SimdFloatCmp                 0      0.00%     12.10% # attempts to use FU when none available (Count)
system.cpu.statFuBusy::SimdFloatCvt                 0      0.00%     12.10% # attempts to use FU when none available (Count)
system.cpu.statFuBusy::SimdFloatDiv                 0      0.00%     12.10% # attempts to use FU when none available (Count)
system.cpu.statFuBusy::SimdFloatMisc                0      0.00%     12.10% # attempts to use FU when none available (Count)
system.cpu.statFuBusy::SimdFloatMult                0      0.00%     12.10% # attempts to use FU when none available (Count)
system.cpu.statFuBusy::SimdFloatMultAcc             0      0.00%     12.10% # attempts to use FU when none available (Count)
system.cpu.statFuBusy::SimdFloatSqrt                0      0.00%     12.10% # attempts to use FU when none available (Count)
system.cpu.statFuBusy::SimdReduceAdd                0      0.00%     12.10% # attempts to use FU when none available (Count)
system.cpu.statFuBusy::SimdReduceAlu                0      0.00%     12.10% # attempts to use FU when none available (Count)
system.cpu.statFuBusy::SimdReduceCmp                0      0.00%     12.10% # attempts to use FU when none available (Count)
system.cpu.statFuBusy::SimdFloatReduceAdd            0      0.00%     12.10% # attempts to use FU when none available (Count)
system.cpu.statFuBusy::SimdFloatReduceCmp            0      0.00%     12.10% # attempts to use FU when none available (Count)
system.cpu.statFuBusy::SimdAes                      0      0.00%     12.10% # attempts to use FU when none available (Count)
system.cpu.statFuBusy::SimdAesMix                   0      0.00%     12.10% # attempts to use FU when none available (Count)
system.cpu.statFuBusy::SimdSha1Hash                 0      0.00%     12.10% # attempts to use FU when none available (Count)
system.cpu.statFuBusy::SimdSha1Hash2                0      0.00%     12.10% # attempts to use FU when none available (Count)
system.cpu.statFuBusy::SimdSha256Hash               0      0.00%     12.10% # attempts to use FU when none available (Count)
system.cpu.statFuBusy::SimdSha256Hash2              0      0.00%     12.10% # attempts to use FU when none available (Count)
system.cpu.statFuBusy::SimdShaSigma2                0      0.00%     12.10% # attempts to use FU when none available (Count)
system.cpu.statFuBusy::SimdShaSigma3                0      0.00%     12.10% # attempts to use FU when none available (Count)
system.cpu.statFuBusy::SimdPredAlu                  0      0.00%     12.10% # attempts to use FU when none available (Count)
system.cpu.statFuBusy::MemRead                  94821     48.45%     60.54% # attempts to use FU when none available (Count)
system.cpu.statFuBusy::MemWrite                 77226     39.46%    100.00% # attempts to use FU when none available (Count)
system.cpu.statFuBusy::FloatMemRead                 0      0.00%    100.00% # attempts to use FU when none available (Count)
system.cpu.statFuBusy::FloatMemWrite                0      0.00%    100.00% # attempts to use FU when none available (Count)
system.cpu.statFuBusy::IprAccess                    0      0.00%    100.00% # attempts to use FU when none available (Count)
system.cpu.statFuBusy::InstPrefetch                 0      0.00%    100.00% # attempts to use FU when none available (Count)
system.cpu.statIssuedInstType_0::No_OpClass          183      0.00%      0.00% # Number of instructions issued per FU type, per thread (Count)
system.cpu.statIssuedInstType_0::IntAlu       8963817     61.42%     61.42% # Number of instructions issued per FU type, per thread (Count)
system.cpu.statIssuedInstType_0::IntMult        49434      0.34%     61.76% # Number of instructions issued per FU type, per thread (Count)
system.cpu.statIssuedInstType_0::IntDiv             0      0.00%     61.76% # Number of instructions issued per FU type, per thread (Count)
system.cpu.statIssuedInstType_0::FloatAdd            0      0.00%     61.76% # Number of instructions issued per FU type, per thread (Count)
system.cpu.statIssuedInstType_0::FloatCmp            0      0.00%     61.76% # Number of instructions issued per FU type, per thread (Count)
system.cpu.statIssuedInstType_0::FloatCvt            0      0.00%     61.76% # Number of instructions issued per FU type, per thread (Count)
system.cpu.statIssuedInstType_0::FloatMult            0      0.00%     61.76% # Number of instructions issued per FU type, per thread (Count)
system.cpu.statIssuedInstType_0::FloatMultAcc            0      0.00%     61.76% # Number of instructions issued per FU type, per thread (Count)
system.cpu.statIssuedInstType_0::FloatDiv            0      0.00%     61.76% # Number of instructions issued per FU type, per thread (Count)
system.cpu.statIssuedInstType_0::FloatMisc            0      0.00%     61.76% # Number of instructions issued per FU type, per thread (Count)
system.cpu.statIssuedInstType_0::FloatSqrt            0      0.00%     61.76% # Number of instructions issued per FU type, per thread (Count)
system.cpu.statIssuedInstType_0::SimdAdd            0      0.00%     61.76% # Number of instructions issued per FU type, per thread (Count)
system.cpu.statIssuedInstType_0::SimdAddAcc            0      0.00%     61.76% # Number of instructions issued per FU type, per thread (Count)
system.cpu.statIssuedInstType_0::SimdAlu            0      0.00%     61.76% # Number of instructions issued per FU type, per thread (Count)
system.cpu.statIssuedInstType_0::SimdCmp            0      0.00%     61.76% # Number of instructions issued per FU type, per thread (Count)
system.cpu.statIssuedInstType_0::SimdCvt            0      0.00%     61.76% # Number of instructions issued per FU type, per thread (Count)
system.cpu.statIssuedInstType_0::SimdMisc            0      0.00%     61.76% # Number of instructions issued per FU type, per thread (Count)
system.cpu.statIssuedInstType_0::SimdMult            0      0.00%     61.76% # Number of instructions issued per FU type, per thread (Count)
system.cpu.statIssuedInstType_0::SimdMultAcc            0      0.00%     61.76% # Number of instructions issued per FU type, per thread (Count)
system.cpu.statIssuedInstType_0::SimdShift            0      0.00%     61.76% # Number of instructions issued per FU type, per thread (Count)
system.cpu.statIssuedInstType_0::SimdShiftAcc            0      0.00%     61.76% # Number of instructions issued per FU type, per thread (Count)
system.cpu.statIssuedInstType_0::SimdDiv            0      0.00%     61.76% # Number of instructions issued per FU type, per thread (Count)
system.cpu.statIssuedInstType_0::SimdSqrt            0      0.00%     61.76% # Number of instructions issued per FU type, per thread (Count)
system.cpu.statIssuedInstType_0::SimdFloatAdd            0      0.00%     61.76% # Number of instructions issued per FU type, per thread (Count)
system.cpu.statIssuedInstType_0::SimdFloatAlu            0      0.00%     61.76% # Number of instructions issued per FU type, per thread (Count)
system.cpu.statIssuedInstType_0::SimdFloatCmp            0      0.00%     61.76% # Number of instructions issued per FU type, per thread (Count)
system.cpu.statIssuedInstType_0::SimdFloatCvt            0      0.00%     61.76% # Number of instructions issued per FU type, per thread (Count)
system.cpu.statIssuedInstType_0::SimdFloatDiv            0      0.00%     61.76% # Number of instructions issued per FU type, per thread (Count)
system.cpu.statIssuedInstType_0::SimdFloatMisc            0      0.00%     61.76% # Number of instructions issued per FU type, per thread (Count)
system.cpu.statIssuedInstType_0::SimdFloatMult            0      0.00%     61.76% # Number of instructions issued per FU type, per thread (Count)
system.cpu.statIssuedInstType_0::SimdFloatMultAcc            1      0.00%     61.76% # Number of instructions issued per FU type, per thread (Count)
system.cpu.statIssuedInstType_0::SimdFloatSqrt            0      0.00%     61.76% # Number of instructions issued per FU type, per thread (Count)
system.cpu.statIssuedInstType_0::SimdReduceAdd            0      0.00%     61.76% # Number of instructions issued per FU type, per thread (Count)
system.cpu.statIssuedInstType_0::SimdReduceAlu            0      0.00%     61.76% # Number of instructions issued per FU type, per thread (Count)
system.cpu.statIssuedInstType_0::SimdReduceCmp            0      0.00%     61.76% # Number of instructions issued per FU type, per thread (Count)
system.cpu.statIssuedInstType_0::SimdFloatReduceAdd            0      0.00%     61.76% # Number of instructions issued per FU type, per thread (Count)
system.cpu.statIssuedInstType_0::SimdFloatReduceCmp            0      0.00%     61.76% # Number of instructions issued per FU type, per thread (Count)
system.cpu.statIssuedInstType_0::SimdAes            0      0.00%     61.76% # Number of instructions issued per FU type, per thread (Count)
system.cpu.statIssuedInstType_0::SimdAesMix            0      0.00%     61.76% # Number of instructions issued per FU type, per thread (Count)
system.cpu.statIssuedInstType_0::SimdSha1Hash            0      0.00%     61.76% # Number of instructions issued per FU type, per thread (Count)
system.cpu.statIssuedInstType_0::SimdSha1Hash2            0      0.00%     61.76% # Number of instructions issued per FU type, per thread (Count)
system.cpu.statIssuedInstType_0::SimdSha256Hash            0      0.00%     61.76% # Number of instructions issued per FU type, per thread (Count)
system.cpu.statIssuedInstType_0::SimdSha256Hash2            0      0.00%     61.76% # Number of instructions issued per FU type, per thread (Count)
system.cpu.statIssuedInstType_0::SimdShaSigma2            0      0.00%     61.76% # Number of instructions issued per FU type, per thread (Count)
system.cpu.statIssuedInstType_0::SimdShaSigma3            0      0.00%     61.76% # Number of instructions issued per FU type, per thread (Count)
system.cpu.statIssuedInstType_0::SimdPredAlu            0      0.00%     61.76% # Number of instructions issued per FU type, per thread (Count)
system.cpu.statIssuedInstType_0::MemRead      3497270     23.96%     85.72% # Number of instructions issued per FU type, per thread (Count)
system.cpu.statIssuedInstType_0::MemWrite      2084180     14.28%    100.00% # Number of instructions issued per FU type, per thread (Count)
system.cpu.statIssuedInstType_0::FloatMemRead            0      0.00%    100.00% # Number of instructions issued per FU type, per thread (Count)
system.cpu.statIssuedInstType_0::FloatMemWrite            0      0.00%    100.00% # Number of instructions issued per FU type, per thread (Count)
system.cpu.statIssuedInstType_0::IprAccess            0      0.00%    100.00% # Number of instructions issued per FU type, per thread (Count)
system.cpu.statIssuedInstType_0::InstPrefetch            0      0.00%    100.00% # Number of instructions issued per FU type, per thread (Count)
system.cpu.statIssuedInstType_0::total       14594885                       # Number of instructions issued per FU type, per thread (Count)
system.cpu.issueRate                         1.886352                       # Inst issue rate ((Count/Cycle))
system.cpu.fuBusy                              195726                       # FU busy when requested (Count)
system.cpu.fuBusyRate                        0.013411                       # FU busy rate (busy events/executed inst) ((Count/Count))
system.cpu.intInstQueueReads                 37073044                       # Number of integer instruction queue reads (Count)
system.cpu.intInstQueueWrites                21927584                       # Number of integer instruction queue writes (Count)
system.cpu.intInstQueueWakeupAccesses        13852156                       # Number of integer instruction queue wakeup accesses (Count)
system.cpu.fpInstQueueReads                         0                       # Number of floating instruction queue reads (Count)
system.cpu.fpInstQueueWrites                        0                       # Number of floating instruction queue writes (Count)
system.cpu.fpInstQueueWakeupAccesses                0                       # Number of floating instruction queue wakeup accesses (Count)
system.cpu.vecInstQueueReads                        0                       # Number of vector instruction queue reads (Count)
system.cpu.vecInstQueueWrites                       0                       # Number of vector instruction queue writes (Count)
system.cpu.vecInstQueueWakeupAccesses               0                       # Number of vector instruction queue wakeup accesses (Count)
system.cpu.intAluAccesses                    14790428                       # Number of integer alu accesses (Count)
system.cpu.fpAluAccesses                            0                       # Number of floating point alu accesses (Count)
system.cpu.vecAluAccesses                           0                       # Number of vector alu accesses (Count)
system.cpu.numInsts                          14254734                       # Number of executed instructions (Count)
system.cpu.numLoadInsts                       3342148                       # Number of load instructions executed (Count)
system.cpu.numSquashedInsts                    340151                       # Number of squashed instructions skipped in execute (Count)
system.cpu.numSwp                                   0                       # Number of swp insts executed (Count)
system.cpu.numNop                                   0                       # Number of nop insts executed (Count)
system.cpu.numRefs                            5365498                       # Number of memory reference insts executed (Count)
system.cpu.numBranches                        2266203                       # Number of branches executed (Count)
system.cpu.numStoreInsts                      2023350                       # Number of stores executed (Count)
system.cpu.numRate                           1.842388                       # Inst execution rate ((Count/Cycle))
system.cpu.timesIdled                            7891                       # Number of times that the entire CPU went into an idle state and unscheduled itself (Count)
system.cpu.idleCycles                           86412                       # Total number of cycles that the CPU has spent unscheduled due to idling (Cycle)
system.cpu.committedInsts                    10000000                       # Number of Instructions Simulated (Count)
system.cpu.committedOps                      11441040                       # Number of Ops (including micro ops) Simulated (Count)
system.cpu.cpi                               0.773710                       # CPI: Cycles Per Instruction ((Cycle/Count))
system.cpu.totalCpi                          0.773710                       # CPI: Total CPI of All Threads ((Cycle/Count))
system.cpu.ipc                               1.292475                       # IPC: Instructions Per Cycle ((Count/Cycle))
system.cpu.totalIpc                          1.292475                       # IPC: Total IPC of All Threads ((Count/Cycle))
system.cpu.intRegfileReads                   16161368                       # Number of integer regfile reads (Count)
system.cpu.intRegfileWrites                   8314177                       # Number of integer regfile writes (Count)
system.cpu.vecRegfileReads                         28                       # number of vector regfile reads (Count)
system.cpu.vecRegfileWrites                         4                       # number of vector regfile writes (Count)
system.cpu.ccRegfileReads                    51641143                       # number of cc regfile reads (Count)
system.cpu.ccRegfileWrites                    6674486                       # number of cc regfile writes (Count)
system.cpu.miscRegfileReads                   4985061                       # number of misc regfile reads (Count)
system.cpu.miscRegfileWrites                     1545                       # number of misc regfile writes (Count)
system.cpu.MemDepUnit__0.insertedLoads        3751035                       # Number of loads inserted to the mem dependence unit. (Count)
system.cpu.MemDepUnit__0.insertedStores       2350540                       # Number of stores inserted to the mem dependence unit. (Count)
system.cpu.MemDepUnit__0.conflictingLoads       460488                       # Number of conflicting loads. (Count)
system.cpu.MemDepUnit__0.conflictingStores       421088                       # Number of conflicting stores. (Count)
system.cpu.MemDepUnit__1.insertedLoads              0                       # Number of loads inserted to the mem dependence unit. (Count)
system.cpu.MemDepUnit__1.insertedStores             0                       # Number of stores inserted to the mem dependence unit. (Count)
system.cpu.MemDepUnit__1.conflictingLoads            0                       # Number of conflicting loads. (Count)
system.cpu.MemDepUnit__1.conflictingStores            0                       # Number of conflicting stores. (Count)
system.cpu.MemDepUnit__2.insertedLoads              0                       # Number of loads inserted to the mem dependence unit. (Count)
system.cpu.MemDepUnit__2.insertedStores             0                       # Number of stores inserted to the mem dependence unit. (Count)
system.cpu.MemDepUnit__2.conflictingLoads            0                       # Number of conflicting loads. (Count)
system.cpu.MemDepUnit__2.conflictingStores            0                       # Number of conflicting stores. (Count)
system.cpu.MemDepUnit__3.insertedLoads              0                       # Number of loads inserted to the mem dependence unit. (Count)
system.cpu.MemDepUnit__3.insertedStores             0                       # Number of stores inserted to the mem dependence unit. (Count)
system.cpu.MemDepUnit__3.conflictingLoads            0                       # Number of conflicting loads. (Count)
system.cpu.MemDepUnit__3.conflictingStores            0                       # Number of conflicting stores. (Count)
system.cpu.branchPred.lookups                 3248669                       # Number of BP lookups (Count)
system.cpu.branchPred.condPredicted           2285640                       # Number of conditional branches predicted (Count)
system.cpu.branchPred.condIncorrect            227066                       # Number of conditional branches incorrect (Count)
system.cpu.branchPred.BTBLookups              1818421                       # Number of BTB lookups (Count)
system.cpu.branchPred.BTBHits                 1025282                       # Number of BTB hits (Count)
system.cpu.branchPred.BTBHitRatio            0.563831                       # BTB Hit Ratio (Ratio)
system.cpu.branchPred.RASUsed                  373497                       # Number of times the RAS was used to get a target. (Count)
system.cpu.branchPred.RASIncorrect               8628                       # Number of incorrect RAS predictions. (Count)
system.cpu.branchPred.indirectLookups           94170                       # Number of indirect predictor lookups. (Count)
system.cpu.branchPred.indirectHits              53178                       # Number of indirect target hits. (Count)
system.cpu.branchPred.indirectMisses            40992                       # Number of indirect misses. (Count)
system.cpu.branchPred.indirectMispredicted         2037                       # Number of mispredicted indirect branches. (Count)
system.cpu.commit.commitSquashedInsts         5241788                       # The number of squashed insts skipped by commit (Count)
system.cpu.commit.commitNonSpecStalls             796                       # The number of times commit has been forced to stall to communicate backwards (Count)
system.cpu.commit.branchMispredicts            196373                       # The number of times a branch was mispredicted (Count)
system.cpu.commit.numCommittedDist::samples      6876947                       # Number of insts commited each cycle (Count)
system.cpu.commit.numCommittedDist::mean     1.663680                       # Number of insts commited each cycle (Count)
system.cpu.commit.numCommittedDist::stdev     2.328891                       # Number of insts commited each cycle (Count)
system.cpu.commit.numCommittedDist::underflows            0      0.00%      0.00% # Number of insts commited each cycle (Count)
system.cpu.commit.numCommittedDist::0         2818707     40.99%     40.99% # Number of insts commited each cycle (Count)
system.cpu.commit.numCommittedDist::1         1821123     26.48%     67.47% # Number of insts commited each cycle (Count)
system.cpu.commit.numCommittedDist::2          886938     12.90%     80.37% # Number of insts commited each cycle (Count)
system.cpu.commit.numCommittedDist::3          212444      3.09%     83.46% # Number of insts commited each cycle (Count)
system.cpu.commit.numCommittedDist::4          294393      4.28%     87.74% # Number of insts commited each cycle (Count)
system.cpu.commit.numCommittedDist::5          156074      2.27%     90.01% # Number of insts commited each cycle (Count)
system.cpu.commit.numCommittedDist::6           82729      1.20%     91.21% # Number of insts commited each cycle (Count)
system.cpu.commit.numCommittedDist::7           81919      1.19%     92.40% # Number of insts commited each cycle (Count)
system.cpu.commit.numCommittedDist::8          522620      7.60%    100.00% # Number of insts commited each cycle (Count)
system.cpu.commit.numCommittedDist::overflows            0      0.00%    100.00% # Number of insts commited each cycle (Count)
system.cpu.commit.numCommittedDist::min_value            0                       # Number of insts commited each cycle (Count)
system.cpu.commit.numCommittedDist::max_value            8                       # Number of insts commited each cycle (Count)
system.cpu.commit.numCommittedDist::total      6876947                       # Number of insts commited each cycle (Count)
system.cpu.commit.instsCommitted             10000000                       # Number of instructions committed (Count)
system.cpu.commit.opsCommitted               11441040                       # Number of ops (including micro ops) committed (Count)
system.cpu.commit.memRefs                     4051965                       # Number of memory references committed (Count)
system.cpu.commit.loads                       2486408                       # Number of loads committed (Count)
system.cpu.commit.amos                              0                       # Number of atomic instructions committed (Count)
system.cpu.commit.membars                         390                       # Number of memory barriers committed (Count)
system.cpu.commit.branches                    1853543                       # Number of branches committed (Count)
system.cpu.commit.vectorInstructions                0                       # Number of committed Vector instructions. (Count)
system.cpu.commit.floating                          0                       # Number of committed floating point instructions. (Count)
system.cpu.commit.integer                    10013735                       # Number of committed integer instructions. (Count)
system.cpu.commit.functionCalls                199147                       # Number of function calls committed. (Count)
system.cpu.commit.committedInstType_0::No_OpClass            0      0.00%      0.00% # Class of committed instruction (Count)
system.cpu.commit.committedInstType_0::IntAlu      7341681     64.17%     64.17% # Class of committed instruction (Count)
system.cpu.commit.committedInstType_0::IntMult        47394      0.41%     64.58% # Class of committed instruction (Count)
system.cpu.commit.committedInstType_0::IntDiv            0      0.00%     64.58% # Class of committed instruction (Count)
system.cpu.commit.committedInstType_0::FloatAdd            0      0.00%     64.58% # Class of committed instruction (Count)
system.cpu.commit.committedInstType_0::FloatCmp            0      0.00%     64.58% # Class of committed instruction (Count)
system.cpu.commit.committedInstType_0::FloatCvt            0      0.00%     64.58% # Class of committed instruction (Count)
system.cpu.commit.committedInstType_0::FloatMult            0      0.00%     64.58% # Class of committed instruction (Count)
system.cpu.commit.committedInstType_0::FloatMultAcc            0      0.00%     64.58% # Class of committed instruction (Count)
system.cpu.commit.committedInstType_0::FloatDiv            0      0.00%     64.58% # Class of committed instruction (Count)
system.cpu.commit.committedInstType_0::FloatMisc            0      0.00%     64.58% # Class of committed instruction (Count)
system.cpu.commit.committedInstType_0::FloatSqrt            0      0.00%     64.58% # Class of committed instruction (Count)
system.cpu.commit.committedInstType_0::SimdAdd            0      0.00%     64.58% # Class of committed instruction (Count)
system.cpu.commit.committedInstType_0::SimdAddAcc            0      0.00%     64.58% # Class of committed instruction (Count)
system.cpu.commit.committedInstType_0::SimdAlu            0      0.00%     64.58% # Class of committed instruction (Count)
system.cpu.commit.committedInstType_0::SimdCmp            0      0.00%     64.58% # Class of committed instruction (Count)
system.cpu.commit.committedInstType_0::SimdCvt            0      0.00%     64.58% # Class of committed instruction (Count)
system.cpu.commit.committedInstType_0::SimdMisc            0      0.00%     64.58% # Class of committed instruction (Count)
system.cpu.commit.committedInstType_0::SimdMult            0      0.00%     64.58% # Class of committed instruction (Count)
system.cpu.commit.committedInstType_0::SimdMultAcc            0      0.00%     64.58% # Class of committed instruction (Count)
system.cpu.commit.committedInstType_0::SimdShift            0      0.00%     64.58% # Class of committed instruction (Count)
system.cpu.commit.committedInstType_0::SimdShiftAcc            0      0.00%     64.58% # Class of committed instruction (Count)
system.cpu.commit.committedInstType_0::SimdDiv            0      0.00%     64.58% # Class of committed instruction (Count)
system.cpu.commit.committedInstType_0::SimdSqrt            0      0.00%     64.58% # Class of committed instruction (Count)
system.cpu.commit.committedInstType_0::SimdFloatAdd            0      0.00%     64.58% # Class of committed instruction (Count)
system.cpu.commit.committedInstType_0::SimdFloatAlu            0      0.00%     64.58% # Class of committed instruction (Count)
system.cpu.commit.committedInstType_0::SimdFloatCmp            0      0.00%     64.58% # Class of committed instruction (Count)
system.cpu.commit.committedInstType_0::SimdFloatCvt            0      0.00%     64.58% # Class of committed instruction (Count)
system.cpu.commit.committedInstType_0::SimdFloatDiv            0      0.00%     64.58% # Class of committed instruction (Count)
system.cpu.commit.committedInstType_0::SimdFloatMisc            0      0.00%     64.58% # Class of committed instruction (Count)
system.cpu.commit.committedInstType_0::SimdFloatMult            0      0.00%     64.58% # Class of committed instruction (Count)
system.cpu.commit.committedInstType_0::SimdFloatMultAcc            0      0.00%     64.58% # Class of committed instruction (Count)
system.cpu.commit.committedInstType_0::SimdFloatSqrt            0      0.00%     64.58% # Class of committed instruction (Count)
system.cpu.commit.committedInstType_0::SimdReduceAdd            0      0.00%     64.58% # Class of committed instruction (Count)
system.cpu.commit.committedInstType_0::SimdReduceAlu            0      0.00%     64.58% # Class of committed instruction (Count)
system.cpu.commit.committedInstType_0::SimdReduceCmp            0      0.00%     64.58% # Class of committed instruction (Count)
system.cpu.commit.committedInstType_0::SimdFloatReduceAdd            0      0.00%     64.58% # Class of committed instruction (Count)
system.cpu.commit.committedInstType_0::SimdFloatReduceCmp            0      0.00%     64.58% # Class of committed instruction (Count)
system.cpu.commit.committedInstType_0::SimdAes            0      0.00%     64.58% # Class of committed instruction (Count)
system.cpu.commit.committedInstType_0::SimdAesMix            0      0.00%     64.58% # Class of committed instruction (Count)
system.cpu.commit.committedInstType_0::SimdSha1Hash            0      0.00%     64.58% # Class of committed instruction (Count)
system.cpu.commit.committedInstType_0::SimdSha1Hash2            0      0.00%     64.58% # Class of committed instruction (Count)
system.cpu.commit.committedInstType_0::SimdSha256Hash            0      0.00%     64.58% # Class of committed instruction (Count)
system.cpu.commit.committedInstType_0::SimdSha256Hash2            0      0.00%     64.58% # Class of committed instruction (Count)
system.cpu.commit.committedInstType_0::SimdShaSigma2            0      0.00%     64.58% # Class of committed instruction (Count)
system.cpu.commit.committedInstType_0::SimdShaSigma3            0      0.00%     64.58% # Class of committed instruction (Count)
system.cpu.commit.committedInstType_0::SimdPredAlu            0      0.00%     64.58% # Class of committed instruction (Count)
system.cpu.commit.committedInstType_0::MemRead      2486408     21.73%     86.32% # Class of committed instruction (Count)
system.cpu.commit.committedInstType_0::MemWrite      1565557     13.68%    100.00% # Class of committed instruction (Count)
system.cpu.commit.committedInstType_0::FloatMemRead            0      0.00%    100.00% # Class of committed instruction (Count)
system.cpu.commit.committedInstType_0::FloatMemWrite            0      0.00%    100.00% # Class of committed instruction (Count)
system.cpu.commit.committedInstType_0::IprAccess            0      0.00%    100.00% # Class of committed instruction (Count)
system.cpu.commit.committedInstType_0::InstPrefetch            0      0.00%    100.00% # Class of committed instruction (Count)
system.cpu.commit.committedInstType_0::total     11441040                       # Class of committed instruction (Count)
system.cpu.commit.commitEligibleSamples        522620                       # number cycles where commit BW limit reached (Cycle)
system.cpu.dcache.demandHits::cpu.data        4292297                       # number of demand (read+write) hits (Count)
system.cpu.dcache.demandHits::total           4292297                       # number of demand (read+write) hits (Count)
system.cpu.dcache.overallHits::cpu.data       4292297                       # number of overall hits (Count)
system.cpu.dcache.overallHits::total          4292297                       # number of overall hits (Count)
system.cpu.dcache.demandMisses::cpu.data        25513                       # number of demand (read+write) misses (Count)
system.cpu.dcache.demandMisses::total           25513                       # number of demand (read+write) misses (Count)
system.cpu.dcache.overallMisses::cpu.data        25513                       # number of overall misses (Count)
system.cpu.dcache.overallMisses::total          25513                       # number of overall misses (Count)
system.cpu.dcache.demandMissLatency::cpu.data   1321841488                       # number of demand (read+write) miss ticks (Tick)
system.cpu.dcache.demandMissLatency::total   1321841488                       # number of demand (read+write) miss ticks (Tick)
system.cpu.dcache.overallMissLatency::cpu.data   1321841488                       # number of overall miss ticks (Tick)
system.cpu.dcache.overallMissLatency::total   1321841488                       # number of overall miss ticks (Tick)
system.cpu.dcache.demandAccesses::cpu.data      4317810                       # number of demand (read+write) accesses (Count)
system.cpu.dcache.demandAccesses::total       4317810                       # number of demand (read+write) accesses (Count)
system.cpu.dcache.overallAccesses::cpu.data      4317810                       # number of overall (read+write) accesses (Count)
system.cpu.dcache.overallAccesses::total      4317810                       # number of overall (read+write) accesses (Count)
system.cpu.dcache.demandMissRate::cpu.data     0.005909                       # miss rate for demand accesses (Ratio)
system.cpu.dcache.demandMissRate::total      0.005909                       # miss rate for demand accesses (Ratio)
system.cpu.dcache.overallMissRate::cpu.data     0.005909                       # miss rate for overall accesses (Ratio)
system.cpu.dcache.overallMissRate::total     0.005909                       # miss rate for overall accesses (Ratio)
system.cpu.dcache.demandAvgMissLatency::cpu.data 51810.507898                       # average overall miss latency in ticks ((Tick/Count))
system.cpu.dcache.demandAvgMissLatency::total 51810.507898                       # average overall miss latency in ticks ((Tick/Count))
system.cpu.dcache.overallAvgMissLatency::cpu.data 51810.507898                       # average overall miss latency ((Tick/Count))
system.cpu.dcache.overallAvgMissLatency::total 51810.507898                       # average overall miss latency ((Tick/Count))
system.cpu.dcache.blockedCycles::no_mshrs         1427                       # number of cycles access was blocked (Cycle)
system.cpu.dcache.blockedCycles::no_targets          344                       # number of cycles access was blocked (Cycle)
system.cpu.dcache.blockedCauses::no_mshrs           44                       # number of times access was blocked (Count)
system.cpu.dcache.blockedCauses::no_targets            6                       # number of times access was blocked (Count)
system.cpu.dcache.avgBlocked::no_mshrs      32.431818                       # average number of cycles each access was blocked ((Cycle/Count))
system.cpu.dcache.avgBlocked::no_targets    57.333333                       # average number of cycles each access was blocked ((Cycle/Count))
system.cpu.dcache.writebacks::writebacks         2277                       # number of writebacks (Count)
system.cpu.dcache.writebacks::total              2277                       # number of writebacks (Count)
system.cpu.dcache.demandMshrHits::cpu.data        21424                       # number of demand (read+write) MSHR hits (Count)
system.cpu.dcache.demandMshrHits::total         21424                       # number of demand (read+write) MSHR hits (Count)
system.cpu.dcache.overallMshrHits::cpu.data        21424                       # number of overall MSHR hits (Count)
system.cpu.dcache.overallMshrHits::total        21424                       # number of overall MSHR hits (Count)
system.cpu.dcache.demandMshrMisses::cpu.data         4089                       # number of demand (read+write) MSHR misses (Count)
system.cpu.dcache.demandMshrMisses::total         4089                       # number of demand (read+write) MSHR misses (Count)
system.cpu.dcache.overallMshrMisses::cpu.data         4089                       # number of overall MSHR misses (Count)
system.cpu.dcache.overallMshrMisses::total         4089                       # number of overall MSHR misses (Count)
system.cpu.dcache.demandMshrMissLatency::cpu.data    192411996                       # number of demand (read+write) MSHR miss ticks (Tick)
system.cpu.dcache.demandMshrMissLatency::total    192411996                       # number of demand (read+write) MSHR miss ticks (Tick)
system.cpu.dcache.overallMshrMissLatency::cpu.data    192411996                       # number of overall MSHR miss ticks (Tick)
system.cpu.dcache.overallMshrMissLatency::total    192411996                       # number of overall MSHR miss ticks (Tick)
system.cpu.dcache.demandMshrMissRate::cpu.data     0.000947                       # mshr miss ratio for demand accesses (Ratio)
system.cpu.dcache.demandMshrMissRate::total     0.000947                       # mshr miss ratio for demand accesses (Ratio)
system.cpu.dcache.overallMshrMissRate::cpu.data     0.000947                       # mshr miss ratio for overall accesses (Ratio)
system.cpu.dcache.overallMshrMissRate::total     0.000947                       # mshr miss ratio for overall accesses (Ratio)
system.cpu.dcache.demandAvgMshrMissLatency::cpu.data 47056.002935                       # average overall mshr miss latency ((Tick/Count))
system.cpu.dcache.demandAvgMshrMissLatency::total 47056.002935                       # average overall mshr miss latency ((Tick/Count))
system.cpu.dcache.overallAvgMshrMissLatency::cpu.data 47056.002935                       # average overall mshr miss latency ((Tick/Count))
system.cpu.dcache.overallAvgMshrMissLatency::total 47056.002935                       # average overall mshr miss latency ((Tick/Count))
system.cpu.dcache.replacements                   3567                       # number of replacements (Count)
system.cpu.dcache.LoadLockedReq.hits::cpu.data          388                       # number of LoadLockedReq hits (Count)
system.cpu.dcache.LoadLockedReq.hits::total          388                       # number of LoadLockedReq hits (Count)
system.cpu.dcache.LoadLockedReq.misses::cpu.data            7                       # number of LoadLockedReq misses (Count)
system.cpu.dcache.LoadLockedReq.misses::total            7                       # number of LoadLockedReq misses (Count)
system.cpu.dcache.LoadLockedReq.missLatency::cpu.data       288000                       # number of LoadLockedReq miss ticks (Tick)
system.cpu.dcache.LoadLockedReq.missLatency::total       288000                       # number of LoadLockedReq miss ticks (Tick)
system.cpu.dcache.LoadLockedReq.accesses::cpu.data          395                       # number of LoadLockedReq accesses(hits+misses) (Count)
system.cpu.dcache.LoadLockedReq.accesses::total          395                       # number of LoadLockedReq accesses(hits+misses) (Count)
system.cpu.dcache.LoadLockedReq.missRate::cpu.data     0.017722                       # miss rate for LoadLockedReq accesses (Ratio)
system.cpu.dcache.LoadLockedReq.missRate::total     0.017722                       # miss rate for LoadLockedReq accesses (Ratio)
system.cpu.dcache.LoadLockedReq.avgMissLatency::cpu.data 41142.857143                       # average LoadLockedReq miss latency ((Tick/Count))
system.cpu.dcache.LoadLockedReq.avgMissLatency::total 41142.857143                       # average LoadLockedReq miss latency ((Tick/Count))
system.cpu.dcache.LoadLockedReq.mshrHits::cpu.data            7                       # number of LoadLockedReq MSHR hits (Count)
system.cpu.dcache.LoadLockedReq.mshrHits::total            7                       # number of LoadLockedReq MSHR hits (Count)
system.cpu.dcache.ReadReq.hits::cpu.data      2777783                       # number of ReadReq hits (Count)
system.cpu.dcache.ReadReq.hits::total         2777783                       # number of ReadReq hits (Count)
system.cpu.dcache.ReadReq.misses::cpu.data         6408                       # number of ReadReq misses (Count)
system.cpu.dcache.ReadReq.misses::total          6408                       # number of ReadReq misses (Count)
system.cpu.dcache.ReadReq.missLatency::cpu.data    119661000                       # number of ReadReq miss ticks (Tick)
system.cpu.dcache.ReadReq.missLatency::total    119661000                       # number of ReadReq miss ticks (Tick)
system.cpu.dcache.ReadReq.accesses::cpu.data      2784191                       # number of ReadReq accesses(hits+misses) (Count)
system.cpu.dcache.ReadReq.accesses::total      2784191                       # number of ReadReq accesses(hits+misses) (Count)
system.cpu.dcache.ReadReq.missRate::cpu.data     0.002302                       # miss rate for ReadReq accesses (Ratio)
system.cpu.dcache.ReadReq.missRate::total     0.002302                       # miss rate for ReadReq accesses (Ratio)
system.cpu.dcache.ReadReq.avgMissLatency::cpu.data 18673.689139                       # average ReadReq miss latency ((Tick/Count))
system.cpu.dcache.ReadReq.avgMissLatency::total 18673.689139                       # average ReadReq miss latency ((Tick/Count))
system.cpu.dcache.ReadReq.mshrHits::cpu.data         4197                       # number of ReadReq MSHR hits (Count)
system.cpu.dcache.ReadReq.mshrHits::total         4197                       # number of ReadReq MSHR hits (Count)
system.cpu.dcache.ReadReq.mshrMisses::cpu.data         2211                       # number of ReadReq MSHR misses (Count)
system.cpu.dcache.ReadReq.mshrMisses::total         2211                       # number of ReadReq MSHR misses (Count)
system.cpu.dcache.ReadReq.mshrMissLatency::cpu.data     55855500                       # number of ReadReq MSHR miss ticks (Tick)
system.cpu.dcache.ReadReq.mshrMissLatency::total     55855500                       # number of ReadReq MSHR miss ticks (Tick)
system.cpu.dcache.ReadReq.mshrMissRate::cpu.data     0.000794                       # mshr miss rate for ReadReq accesses (Ratio)
system.cpu.dcache.ReadReq.mshrMissRate::total     0.000794                       # mshr miss rate for ReadReq accesses (Ratio)
system.cpu.dcache.ReadReq.avgMshrMissLatency::cpu.data 25262.550882                       # average ReadReq mshr miss latency ((Tick/Count))
system.cpu.dcache.ReadReq.avgMshrMissLatency::total 25262.550882                       # average ReadReq mshr miss latency ((Tick/Count))
system.cpu.dcache.StoreCondReq.hits::cpu.data          386                       # number of StoreCondReq hits (Count)
system.cpu.dcache.StoreCondReq.hits::total          386                       # number of StoreCondReq hits (Count)
system.cpu.dcache.StoreCondReq.accesses::cpu.data          386                       # number of StoreCondReq accesses(hits+misses) (Count)
system.cpu.dcache.StoreCondReq.accesses::total          386                       # number of StoreCondReq accesses(hits+misses) (Count)
system.cpu.dcache.WriteReq.hits::cpu.data      1514514                       # number of WriteReq hits (Count)
system.cpu.dcache.WriteReq.hits::total        1514514                       # number of WriteReq hits (Count)
system.cpu.dcache.WriteReq.misses::cpu.data        19105                       # number of WriteReq misses (Count)
system.cpu.dcache.WriteReq.misses::total        19105                       # number of WriteReq misses (Count)
system.cpu.dcache.WriteReq.missLatency::cpu.data   1202180488                       # number of WriteReq miss ticks (Tick)
system.cpu.dcache.WriteReq.missLatency::total   1202180488                       # number of WriteReq miss ticks (Tick)
system.cpu.dcache.WriteReq.accesses::cpu.data      1533619                       # number of WriteReq accesses(hits+misses) (Count)
system.cpu.dcache.WriteReq.accesses::total      1533619                       # number of WriteReq accesses(hits+misses) (Count)
system.cpu.dcache.WriteReq.missRate::cpu.data     0.012457                       # miss rate for WriteReq accesses (Ratio)
system.cpu.dcache.WriteReq.missRate::total     0.012457                       # miss rate for WriteReq accesses (Ratio)
system.cpu.dcache.WriteReq.avgMissLatency::cpu.data 62924.914316                       # average WriteReq miss latency ((Tick/Count))
system.cpu.dcache.WriteReq.avgMissLatency::total 62924.914316                       # average WriteReq miss latency ((Tick/Count))
system.cpu.dcache.WriteReq.mshrHits::cpu.data        17227                       # number of WriteReq MSHR hits (Count)
system.cpu.dcache.WriteReq.mshrHits::total        17227                       # number of WriteReq MSHR hits (Count)
system.cpu.dcache.WriteReq.mshrMisses::cpu.data         1878                       # number of WriteReq MSHR misses (Count)
system.cpu.dcache.WriteReq.mshrMisses::total         1878                       # number of WriteReq MSHR misses (Count)
system.cpu.dcache.WriteReq.mshrMissLatency::cpu.data    136556496                       # number of WriteReq MSHR miss ticks (Tick)
system.cpu.dcache.WriteReq.mshrMissLatency::total    136556496                       # number of WriteReq MSHR miss ticks (Tick)
system.cpu.dcache.WriteReq.mshrMissRate::cpu.data     0.001225                       # mshr miss rate for WriteReq accesses (Ratio)
system.cpu.dcache.WriteReq.mshrMissRate::total     0.001225                       # mshr miss rate for WriteReq accesses (Ratio)
system.cpu.dcache.WriteReq.avgMshrMissLatency::cpu.data 72713.789137                       # average WriteReq mshr miss latency ((Tick/Count))
system.cpu.dcache.WriteReq.avgMshrMissLatency::total 72713.789137                       # average WriteReq mshr miss latency ((Tick/Count))
system.cpu.dcache.power_state.pwrStateResidencyTicks::UNDEFINED   3868547500                       # Cumulative time (in ticks) in various power states (Tick)
system.cpu.dcache.tags.tagsInUse           496.759708                       # Average ticks per tags in use ((Tick/Count))
system.cpu.dcache.tags.totalRefs              4297189                       # Total number of references to valid blocks. (Count)
system.cpu.dcache.tags.sampledRefs               4079                       # Sample count of references to valid blocks. (Count)
system.cpu.dcache.tags.avgRefs            1053.490807                       # Average number of references to valid blocks. ((Count/Count))
system.cpu.dcache.tags.warmupTick              148500                       # The tick when the warmup percentage was hit. (Tick)
system.cpu.dcache.tags.occupancies::cpu.data   496.759708                       # Average occupied blocks per tick, per requestor ((Count/Tick))
system.cpu.dcache.tags.avgOccs::cpu.data     0.970234                       # Average percentage of cache occupancy ((Ratio/Tick))
system.cpu.dcache.tags.avgOccs::total        0.970234                       # Average percentage of cache occupancy ((Ratio/Tick))
system.cpu.dcache.tags.occupanciesTaskId::1024          512                       # Occupied blocks per task id (Count)
system.cpu.dcache.tags.ageTaskId_1024::0            4                       # Occupied blocks per task id, per block age (Count)
system.cpu.dcache.tags.ageTaskId_1024::1           41                       # Occupied blocks per task id, per block age (Count)
system.cpu.dcache.tags.ageTaskId_1024::2          467                       # Occupied blocks per task id, per block age (Count)
system.cpu.dcache.tags.ratioOccsTaskId::1024            1                       # Ratio of occupied blocks and all blocks, per task id (Ratio)
system.cpu.dcache.tags.tagAccesses            8641261                       # Number of tag accesses (Count)
system.cpu.dcache.tags.dataAccesses           8641261                       # Number of data accesses (Count)
system.cpu.dcache.tags.power_state.pwrStateResidencyTicks::UNDEFINED   3868547500                       # Cumulative time (in ticks) in various power states (Tick)
system.cpu.decode.idleCycles                  3014136                       # Number of cycles decode is idle (Cycle)
system.cpu.decode.blockedCycles               1187032                       # Number of cycles decode is blocked (Cycle)
system.cpu.decode.runCycles                   2988385                       # Number of cycles decode is running (Cycle)
system.cpu.decode.unblockCycles                264245                       # Number of cycles decode is unblocking (Cycle)
system.cpu.decode.squashCycles                 196886                       # Number of cycles decode is squashing (Cycle)
system.cpu.decode.branchResolved              1006454                       # Number of times decode resolved a branch (Count)
system.cpu.decode.branchMispred                 31889                       # Number of times decode detected a branch misprediction (Count)
system.cpu.decode.decodedInsts               18528143                       # Number of instructions handled by decode (Count)
system.cpu.decode.squashedInsts                  8181                       # Number of squashed instructions handled by decode (Count)
system.cpu.fetch.icacheStallCycles            3611888                       # Number of cycles fetch is stalled on an Icache miss (Cycle)
system.cpu.fetch.insts                       16967838                       # Number of instructions fetch has processed (Count)
system.cpu.fetch.branches                     3248669                       # Number of branches that fetch encountered (Count)
system.cpu.fetch.predictedBranches            1451957                       # Number of branches that fetch has predicted taken (Count)
system.cpu.fetch.cycles                       3809857                       # Number of cycles fetch has run and was not squashing or blocked (Cycle)
system.cpu.fetch.squashCycles                  455162                       # Number of cycles fetch has spent squashing (Cycle)
system.cpu.fetch.miscStallCycles                  267                       # Number of cycles fetch has spent waiting on interrupts, or bad addresses, or out of MSHRs (Cycle)
system.cpu.fetch.pendingTrapStallCycles          1057                       # Number of stall cycles due to pending traps (Cycle)
system.cpu.fetch.icacheWaitRetryStallCycles           34                       # Number of stall cycles due to full MSHR (Cycle)
system.cpu.fetch.cacheLines                   2646371                       # Number of cache lines fetched (Count)
system.cpu.fetch.icacheSquashes                106230                       # Number of outstanding Icache misses that were squashed (Count)
system.cpu.fetch.nisnDist::samples            7650684                       # Number of instructions fetched each cycle (Total) (Count)
system.cpu.fetch.nisnDist::mean              2.578108                       # Number of instructions fetched each cycle (Total) (Count)
system.cpu.fetch.nisnDist::stdev             3.279723                       # Number of instructions fetched each cycle (Total) (Count)
system.cpu.fetch.nisnDist::underflows               0      0.00%      0.00% # Number of instructions fetched each cycle (Total) (Count)
system.cpu.fetch.nisnDist::0                  4032211     52.70%     52.70% # Number of instructions fetched each cycle (Total) (Count)
system.cpu.fetch.nisnDist::1                   360224      4.71%     57.41% # Number of instructions fetched each cycle (Total) (Count)
system.cpu.fetch.nisnDist::2                   492369      6.44%     63.85% # Number of instructions fetched each cycle (Total) (Count)
system.cpu.fetch.nisnDist::3                   178006      2.33%     66.17% # Number of instructions fetched each cycle (Total) (Count)
system.cpu.fetch.nisnDist::4                   363786      4.75%     70.93% # Number of instructions fetched each cycle (Total) (Count)
system.cpu.fetch.nisnDist::5                   286414      3.74%     74.67% # Number of instructions fetched each cycle (Total) (Count)
system.cpu.fetch.nisnDist::6                   186095      2.43%     77.11% # Number of instructions fetched each cycle (Total) (Count)
system.cpu.fetch.nisnDist::7                   171108      2.24%     79.34% # Number of instructions fetched each cycle (Total) (Count)
system.cpu.fetch.nisnDist::8                  1580471     20.66%    100.00% # Number of instructions fetched each cycle (Total) (Count)
system.cpu.fetch.nisnDist::overflows                0      0.00%    100.00% # Number of instructions fetched each cycle (Total) (Count)
system.cpu.fetch.nisnDist::min_value                0                       # Number of instructions fetched each cycle (Total) (Count)
system.cpu.fetch.nisnDist::max_value                8                       # Number of instructions fetched each cycle (Total) (Count)
system.cpu.fetch.nisnDist::total              7650684                       # Number of instructions fetched each cycle (Total) (Count)
system.cpu.fetch.branchRate                  0.419882                       # Number of branch fetches per cycle (Ratio)
system.cpu.fetch.rate                        2.193050                       # Number of inst fetches per cycle ((Count/Cycle))
system.cpu.icache.demandHits::cpu.inst        2583493                       # number of demand (read+write) hits (Count)
system.cpu.icache.demandHits::total           2583493                       # number of demand (read+write) hits (Count)
system.cpu.icache.overallHits::cpu.inst       2583493                       # number of overall hits (Count)
system.cpu.icache.overallHits::total          2583493                       # number of overall hits (Count)
system.cpu.icache.demandMisses::cpu.inst        62878                       # number of demand (read+write) misses (Count)
system.cpu.icache.demandMisses::total           62878                       # number of demand (read+write) misses (Count)
system.cpu.icache.overallMisses::cpu.inst        62878                       # number of overall misses (Count)
system.cpu.icache.overallMisses::total          62878                       # number of overall misses (Count)
system.cpu.icache.demandMissLatency::cpu.inst    877640000                       # number of demand (read+write) miss ticks (Tick)
system.cpu.icache.demandMissLatency::total    877640000                       # number of demand (read+write) miss ticks (Tick)
system.cpu.icache.overallMissLatency::cpu.inst    877640000                       # number of overall miss ticks (Tick)
system.cpu.icache.overallMissLatency::total    877640000                       # number of overall miss ticks (Tick)
system.cpu.icache.demandAccesses::cpu.inst      2646371                       # number of demand (read+write) accesses (Count)
system.cpu.icache.demandAccesses::total       2646371                       # number of demand (read+write) accesses (Count)
system.cpu.icache.overallAccesses::cpu.inst      2646371                       # number of overall (read+write) accesses (Count)
system.cpu.icache.overallAccesses::total      2646371                       # number of overall (read+write) accesses (Count)
system.cpu.icache.demandMissRate::cpu.inst     0.023760                       # miss rate for demand accesses (Ratio)
system.cpu.icache.demandMissRate::total      0.023760                       # miss rate for demand accesses (Ratio)
system.cpu.icache.overallMissRate::cpu.inst     0.023760                       # miss rate for overall accesses (Ratio)
system.cpu.icache.overallMissRate::total     0.023760                       # miss rate for overall accesses (Ratio)
system.cpu.icache.demandAvgMissLatency::cpu.inst 13957.823086                       # average overall miss latency in ticks ((Tick/Count))
system.cpu.icache.demandAvgMissLatency::total 13957.823086                       # average overall miss latency in ticks ((Tick/Count))
system.cpu.icache.overallAvgMissLatency::cpu.inst 13957.823086                       # average overall miss latency ((Tick/Count))
system.cpu.icache.overallAvgMissLatency::total 13957.823086                       # average overall miss latency ((Tick/Count))
system.cpu.icache.blockedCycles::no_mshrs          884                       # number of cycles access was blocked (Cycle)
system.cpu.icache.blockedCycles::no_targets            0                       # number of cycles access was blocked (Cycle)
system.cpu.icache.blockedCauses::no_mshrs           14                       # number of times access was blocked (Count)
system.cpu.icache.blockedCauses::no_targets            0                       # number of times access was blocked (Count)
system.cpu.icache.avgBlocked::no_mshrs      63.142857                       # average number of cycles each access was blocked ((Cycle/Count))
system.cpu.icache.avgBlocked::no_targets          nan                       # average number of cycles each access was blocked ((Cycle/Count))
system.cpu.icache.writebacks::writebacks            3                       # number of writebacks (Count)
system.cpu.icache.writebacks::total                 3                       # number of writebacks (Count)
system.cpu.icache.demandMshrHits::cpu.inst         4950                       # number of demand (read+write) MSHR hits (Count)
system.cpu.icache.demandMshrHits::total          4950                       # number of demand (read+write) MSHR hits (Count)
system.cpu.icache.overallMshrHits::cpu.inst         4950                       # number of overall MSHR hits (Count)
system.cpu.icache.overallMshrHits::total         4950                       # number of overall MSHR hits (Count)
system.cpu.icache.demandMshrMisses::cpu.inst        57928                       # number of demand (read+write) MSHR misses (Count)
system.cpu.icache.demandMshrMisses::total        57928                       # number of demand (read+write) MSHR misses (Count)
system.cpu.icache.overallMshrMisses::cpu.inst        57928                       # number of overall MSHR misses (Count)
system.cpu.icache.overallMshrMisses::total        57928                       # number of overall MSHR misses (Count)
system.cpu.icache.demandMshrMissLatency::cpu.inst    776904500                       # number of demand (read+write) MSHR miss ticks (Tick)
system.cpu.icache.demandMshrMissLatency::total    776904500                       # number of demand (read+write) MSHR miss ticks (Tick)
system.cpu.icache.overallMshrMissLatency::cpu.inst    776904500                       # number of overall MSHR miss ticks (Tick)
system.cpu.icache.overallMshrMissLatency::total    776904500                       # number of overall MSHR miss ticks (Tick)
system.cpu.icache.demandMshrMissRate::cpu.inst     0.021890                       # mshr miss ratio for demand accesses (Ratio)
system.cpu.icache.demandMshrMissRate::total     0.021890                       # mshr miss ratio for demand accesses (Ratio)
system.cpu.icache.overallMshrMissRate::cpu.inst     0.021890                       # mshr miss ratio for overall accesses (Ratio)
system.cpu.icache.overallMshrMissRate::total     0.021890                       # mshr miss ratio for overall accesses (Ratio)
system.cpu.icache.demandAvgMshrMissLatency::cpu.inst 13411.553998                       # average overall mshr miss latency ((Tick/Count))
system.cpu.icache.demandAvgMshrMissLatency::total 13411.553998                       # average overall mshr miss latency ((Tick/Count))
system.cpu.icache.overallAvgMshrMissLatency::cpu.inst 13411.553998                       # average overall mshr miss latency ((Tick/Count))
system.cpu.icache.overallAvgMshrMissLatency::total 13411.553998                       # average overall mshr miss latency ((Tick/Count))
system.cpu.icache.replacements                  57414                       # number of replacements (Count)
system.cpu.icache.ReadReq.hits::cpu.inst      2583493                       # number of ReadReq hits (Count)
system.cpu.icache.ReadReq.hits::total         2583493                       # number of ReadReq hits (Count)
system.cpu.icache.ReadReq.misses::cpu.inst        62878                       # number of ReadReq misses (Count)
system.cpu.icache.ReadReq.misses::total         62878                       # number of ReadReq misses (Count)
system.cpu.icache.ReadReq.missLatency::cpu.inst    877640000                       # number of ReadReq miss ticks (Tick)
system.cpu.icache.ReadReq.missLatency::total    877640000                       # number of ReadReq miss ticks (Tick)
system.cpu.icache.ReadReq.accesses::cpu.inst      2646371                       # number of ReadReq accesses(hits+misses) (Count)
system.cpu.icache.ReadReq.accesses::total      2646371                       # number of ReadReq accesses(hits+misses) (Count)
system.cpu.icache.ReadReq.missRate::cpu.inst     0.023760                       # miss rate for ReadReq accesses (Ratio)
system.cpu.icache.ReadReq.missRate::total     0.023760                       # miss rate for ReadReq accesses (Ratio)
system.cpu.icache.ReadReq.avgMissLatency::cpu.inst 13957.823086                       # average ReadReq miss latency ((Tick/Count))
system.cpu.icache.ReadReq.avgMissLatency::total 13957.823086                       # average ReadReq miss latency ((Tick/Count))
system.cpu.icache.ReadReq.mshrHits::cpu.inst         4950                       # number of ReadReq MSHR hits (Count)
system.cpu.icache.ReadReq.mshrHits::total         4950                       # number of ReadReq MSHR hits (Count)
system.cpu.icache.ReadReq.mshrMisses::cpu.inst        57928                       # number of ReadReq MSHR misses (Count)
system.cpu.icache.ReadReq.mshrMisses::total        57928                       # number of ReadReq MSHR misses (Count)
system.cpu.icache.ReadReq.mshrMissLatency::cpu.inst    776904500                       # number of ReadReq MSHR miss ticks (Tick)
system.cpu.icache.ReadReq.mshrMissLatency::total    776904500                       # number of ReadReq MSHR miss ticks (Tick)
system.cpu.icache.ReadReq.mshrMissRate::cpu.inst     0.021890                       # mshr miss rate for ReadReq accesses (Ratio)
system.cpu.icache.ReadReq.mshrMissRate::total     0.021890                       # mshr miss rate for ReadReq accesses (Ratio)
system.cpu.icache.ReadReq.avgMshrMissLatency::cpu.inst 13411.553998                       # average ReadReq mshr miss latency ((Tick/Count))
system.cpu.icache.ReadReq.avgMshrMissLatency::total 13411.553998                       # average ReadReq mshr miss latency ((Tick/Count))
system.cpu.icache.power_state.pwrStateResidencyTicks::UNDEFINED   3868547500                       # Cumulative time (in ticks) in various power states (Tick)
system.cpu.icache.tags.tagsInUse           502.331866                       # Average ticks per tags in use ((Tick/Count))
system.cpu.icache.tags.totalRefs              2641421                       # Total number of references to valid blocks. (Count)
system.cpu.icache.tags.sampledRefs              57928                       # Sample count of references to valid blocks. (Count)
system.cpu.icache.tags.avgRefs              45.598346                       # Average number of references to valid blocks. ((Count/Count))
system.cpu.icache.tags.warmupTick               81500                       # The tick when the warmup percentage was hit. (Tick)
system.cpu.icache.tags.occupancies::cpu.inst   502.331866                       # Average occupied blocks per tick, per requestor ((Count/Tick))
system.cpu.icache.tags.avgOccs::cpu.inst     0.981117                       # Average percentage of cache occupancy ((Ratio/Tick))
system.cpu.icache.tags.avgOccs::total        0.981117                       # Average percentage of cache occupancy ((Ratio/Tick))
system.cpu.icache.tags.occupanciesTaskId::1024          505                       # Occupied blocks per task id (Count)
system.cpu.icache.tags.ageTaskId_1024::0           12                       # Occupied blocks per task id, per block age (Count)
system.cpu.icache.tags.ageTaskId_1024::1            2                       # Occupied blocks per task id, per block age (Count)
system.cpu.icache.tags.ageTaskId_1024::2           19                       # Occupied blocks per task id, per block age (Count)
system.cpu.icache.tags.ageTaskId_1024::3          472                       # Occupied blocks per task id, per block age (Count)
system.cpu.icache.tags.ratioOccsTaskId::1024     0.986328                       # Ratio of occupied blocks and all blocks, per task id (Ratio)
system.cpu.icache.tags.tagAccesses            5350670                       # Number of tag accesses (Count)
system.cpu.icache.tags.dataAccesses           5350670                       # Number of data accesses (Count)
system.cpu.icache.tags.power_state.pwrStateResidencyTicks::UNDEFINED   3868547500                       # Cumulative time (in ticks) in various power states (Tick)
system.cpu.iew.idleCycles                           0                       # Number of cycles IEW is idle (Cycle)
system.cpu.iew.squashCycles                    196886                       # Number of cycles IEW is squashing (Cycle)
system.cpu.iew.blockCycles                     586401                       # Number of cycles IEW is blocking (Cycle)
system.cpu.iew.unblockCycles                    22674                       # Number of cycles IEW is unblocking (Cycle)
system.cpu.iew.dispatchedInsts               16684018                       # Number of instructions dispatched to IQ (Count)
system.cpu.iew.dispSquashedInsts                52915                       # Number of squashed instructions skipped by dispatch (Count)
system.cpu.iew.dispLoadInsts                  3751035                       # Number of dispatched load instructions (Count)
system.cpu.iew.dispStoreInsts                 2350540                       # Number of dispatched store instructions (Count)
system.cpu.iew.dispNonSpecInsts                  1097                       # Number of dispatched non-speculative instructions (Count)
system.cpu.iew.iqFullEvents                       518                       # Number of times the IQ has become full, causing a stall (Count)
system.cpu.iew.lsqFullEvents                    22075                       # Number of times the LSQ has become full, causing a stall (Count)
system.cpu.iew.memOrderViolationEvents            623                       # Number of memory order violations (Count)
system.cpu.iew.predictedTakenIncorrect          97821                       # Number of branches that were predicted taken incorrectly (Count)
system.cpu.iew.predictedNotTakenIncorrect       120762                       # Number of branches that were predicted not taken incorrectly (Count)
system.cpu.iew.branchMispredicts               218583                       # Number of branch mispredicts detected at execute (Count)
system.cpu.iew.instsToCommit                 13920285                       # Cumulative count of insts sent to commit (Count)
system.cpu.iew.writebackCount                13852156                       # Cumulative count of insts written-back (Count)
system.cpu.iew.producerInst                   7986312                       # Number of instructions producing a value (Count)
system.cpu.iew.consumerInst                  13916834                       # Number of instructions consuming a value (Count)
system.cpu.iew.wbRate                        1.790356                       # Insts written-back per cycle ((Count/Cycle))
system.cpu.iew.wbFanout                      0.573860                       # Average fanout of values written-back ((Count/Count))
system.cpu.lsq0.forwLoads                      319043                       # Number of loads that had data forwarded from stores (Count)
system.cpu.lsq0.squashedLoads                 1264625                       # Number of loads squashed (Count)
system.cpu.lsq0.ignoredResponses                 4185                       # Number of memory responses ignored because the instruction is squashed (Count)
system.cpu.lsq0.memOrderViolation                 623                       # Number of memory ordering violations (Count)
system.cpu.lsq0.squashedStores                 784982                       # Number of stores squashed (Count)
system.cpu.lsq0.rescheduledLoads               202760                       # Number of loads that were rescheduled (Count)
system.cpu.lsq0.blockedByCache                     36                       # Number of times an access to memory failed due to the cache being blocked (Count)
system.cpu.lsq0.loadToUse::samples            2486406                       # Distribution of cycle latency between the first time a load is issued and its completion (Unspecified)
system.cpu.lsq0.loadToUse::mean              3.620000                       # Distribution of cycle latency between the first time a load is issued and its completion (Unspecified)
system.cpu.lsq0.loadToUse::stdev             3.758884                       # Distribution of cycle latency between the first time a load is issued and its completion (Unspecified)
system.cpu.lsq0.loadToUse::0-9                2437632     98.04%     98.04% # Distribution of cycle latency between the first time a load is issued and its completion (Unspecified)
system.cpu.lsq0.loadToUse::10-19                24965      1.00%     99.04% # Distribution of cycle latency between the first time a load is issued and its completion (Unspecified)
system.cpu.lsq0.loadToUse::20-29                22262      0.90%     99.94% # Distribution of cycle latency between the first time a load is issued and its completion (Unspecified)
system.cpu.lsq0.loadToUse::30-39                  526      0.02%     99.96% # Distribution of cycle latency between the first time a load is issued and its completion (Unspecified)
system.cpu.lsq0.loadToUse::40-49                  226      0.01%     99.97% # Distribution of cycle latency between the first time a load is issued and its completion (Unspecified)
system.cpu.lsq0.loadToUse::50-59                  119      0.00%     99.97% # Distribution of cycle latency between the first time a load is issued and its completion (Unspecified)
system.cpu.lsq0.loadToUse::60-69                   27      0.00%     99.97% # Distribution of cycle latency between the first time a load is issued and its completion (Unspecified)
system.cpu.lsq0.loadToUse::70-79                    6      0.00%     99.97% # Distribution of cycle latency between the first time a load is issued and its completion (Unspecified)
system.cpu.lsq0.loadToUse::80-89                   25      0.00%     99.98% # Distribution of cycle latency between the first time a load is issued and its completion (Unspecified)
system.cpu.lsq0.loadToUse::90-99                    9      0.00%     99.98% # Distribution of cycle latency between the first time a load is issued and its completion (Unspecified)
system.cpu.lsq0.loadToUse::100-109                 13      0.00%     99.98% # Distribution of cycle latency between the first time a load is issued and its completion (Unspecified)
system.cpu.lsq0.loadToUse::110-119                 15      0.00%     99.98% # Distribution of cycle latency between the first time a load is issued and its completion (Unspecified)
system.cpu.lsq0.loadToUse::120-129                 38      0.00%     99.98% # Distribution of cycle latency between the first time a load is issued and its completion (Unspecified)
system.cpu.lsq0.loadToUse::130-139                246      0.01%     99.99% # Distribution of cycle latency between the first time a load is issued and its completion (Unspecified)
system.cpu.lsq0.loadToUse::140-149                 54      0.00%     99.99% # Distribution of cycle latency between the first time a load is issued and its completion (Unspecified)
system.cpu.lsq0.loadToUse::150-159                 24      0.00%     99.99% # Distribution of cycle latency between the first time a load is issued and its completion (Unspecified)
system.cpu.lsq0.loadToUse::160-169                116      0.00%    100.00% # Distribution of cycle latency between the first time a load is issued and its completion (Unspecified)
system.cpu.lsq0.loadToUse::170-179                 15      0.00%    100.00% # Distribution of cycle latency between the first time a load is issued and its completion (Unspecified)
system.cpu.lsq0.loadToUse::180-189                 36      0.00%    100.00% # Distribution of cycle latency between the first time a load is issued and its completion (Unspecified)
[...]
system.mem_ctrl.dram.perBankRdBursts::6           137                       # Per bank write bursts (Count)
system.mem_ctrl.dram.perBankRdBursts::7           162                       # Per bank write bursts (Count)
system.mem_ctrl.dram.perBankRdBursts::8           185                       # Per bank write bursts (Count)
system.mem_ctrl.dram.perBankRdBursts::9           187                       # Per bank write bursts (Count)
system.mem_ctrl.dram.perBankRdBursts::10          184                       # Per bank write bursts (Count)
system.mem_ctrl.dram.perBankRdBursts::11           85                       # Per bank write bursts (Count)
system.mem_ctrl.dram.perBankRdBursts::12          145                       # Per bank write bursts (Count)
system.mem_ctrl.dram.perBankRdBursts::13          130                       # Per bank write bursts (Count)
system.mem_ctrl.dram.perBankRdBursts::14          152                       # Per bank write bursts (Count)
system.mem_ctrl.dram.perBankRdBursts::15          171                       # Per bank write bursts (Count)
system.mem_ctrl.dram.perBankRdBursts::16           30                       # Per bank write bursts (Count)
system.mem_ctrl.dram.perBankRdBursts::17           34                       # Per bank write bursts (Count)
system.mem_ctrl.dram.perBankRdBursts::18           68                       # Per bank write bursts (Count)
system.mem_ctrl.dram.perBankRdBursts::19           16                       # Per bank write bursts (Count)
system.mem_ctrl.dram.perBankRdBursts::20           17                       # Per bank write bursts (Count)
system.mem_ctrl.dram.perBankRdBursts::21           68                       # Per bank write bursts (Count)
system.mem_ctrl.dram.perBankRdBursts::22           34                       # Per bank write bursts (Count)
system.mem_ctrl.dram.perBankRdBursts::23           18                       # Per bank write bursts (Count)
system.mem_ctrl.dram.perBankRdBursts::24            4                       # Per bank write bursts (Count)
system.mem_ctrl.dram.perBankRdBursts::25           81                       # Per bank write bursts (Count)
system.mem_ctrl.dram.perBankRdBursts::26           90                       # Per bank write bursts (Count)
system.mem_ctrl.dram.perBankRdBursts::27           18                       # Per bank write bursts (Count)
system.mem_ctrl.dram.perBankRdBursts::28           31                       # Per bank write bursts (Count)
system.mem_ctrl.dram.perBankRdBursts::29           80                       # Per bank write bursts (Count)
system.mem_ctrl.dram.perBankRdBursts::30           94                       # Per bank write bursts (Count)
system.mem_ctrl.dram.perBankRdBursts::31          122                       # Per bank write bursts (Count)
system.mem_ctrl.dram.perBankWrBursts::0             0                       # Per bank write bursts (Count)
system.mem_ctrl.dram.perBankWrBursts::1             0                       # Per bank write bursts (Count)
system.mem_ctrl.dram.perBankWrBursts::2             0                       # Per bank write bursts (Count)
system.mem_ctrl.dram.perBankWrBursts::3             0                       # Per bank write bursts (Count)
system.mem_ctrl.dram.perBankWrBursts::4             0                       # Per bank write bursts (Count)
system.mem_ctrl.dram.perBankWrBursts::5             0                       # Per bank write bursts (Count)
system.mem_ctrl.dram.perBankWrBursts::6             0                       # Per bank write bursts (Count)
system.mem_ctrl.dram.perBankWrBursts::7             0                       # Per bank write bursts (Count)
system.mem_ctrl.dram.perBankWrBursts::8             0                       # Per bank write bursts (Count)
system.mem_ctrl.dram.perBankWrBursts::9             0                       # Per bank write bursts (Count)
system.mem_ctrl.dram.perBankWrBursts::10            0                       # Per bank write bursts (Count)
system.mem_ctrl.dram.perBankWrBursts::11            0                       # Per bank write bursts (Count)
system.mem_ctrl.dram.perBankWrBursts::12            0                       # Per bank write bursts (Count)
system.mem_ctrl.dram.perBankWrBursts::13            0                       # Per bank write bursts (Count)
system.mem_ctrl.dram.perBankWrBursts::14            0                       # Per bank write bursts (Count)
system.mem_ctrl.dram.perBankWrBursts::15            0                       # Per bank write bursts (Count)
system.mem_ctrl.dram.perBankWrBursts::16            0                       # Per bank write bursts (Count)
system.mem_ctrl.dram.perBankWrBursts::17            0                       # Per bank write bursts (Count)
system.mem_ctrl.dram.perBankWrBursts::18            0                       # Per bank write bursts (Count)
system.mem_ctrl.dram.perBankWrBursts::19            0                       # Per bank write bursts (Count)
system.mem_ctrl.dram.perBankWrBursts::20            0                       # Per bank write bursts (Count)
system.mem_ctrl.dram.perBankWrBursts::21            0                       # Per bank write bursts (Count)
system.mem_ctrl.dram.perBankWrBursts::22            0                       # Per bank write bursts (Count)
system.mem_ctrl.dram.perBankWrBursts::23            0                       # Per bank write bursts (Count)
system.mem_ctrl.dram.perBankWrBursts::24            0                       # Per bank write bursts (Count)
system.mem_ctrl.dram.perBankWrBursts::25            0                       # Per bank write bursts (Count)
system.mem_ctrl.dram.perBankWrBursts::26            0                       # Per bank write bursts (Count)
system.mem_ctrl.dram.perBankWrBursts::27            0                       # Per bank write bursts (Count)
system.mem_ctrl.dram.perBankWrBursts::28            0                       # Per bank write bursts (Count)
system.mem_ctrl.dram.perBankWrBursts::29            0                       # Per bank write bursts (Count)
system.mem_ctrl.dram.perBankWrBursts::30            0                       # Per bank write bursts (Count)
system.mem_ctrl.dram.perBankWrBursts::31            0                       # Per bank write bursts (Count)
system.mem_ctrl.dram.totQLat                 35528622                       # Total ticks spent queuing (Tick)
system.mem_ctrl.dram.totBusLat               11262160                       # Total ticks spent in databus transfers (Tick)
system.mem_ctrl.dram.totMemAccLat            94651582                       # Total ticks spent from burst creation until serviced by the DRAM (Tick)
system.mem_ctrl.dram.avgQLat                 10511.43                       # Average queueing delay per DRAM burst ((Tick/Count))
system.mem_ctrl.dram.avgBusLat                3332.00                       # Average bus latency per DRAM burst ((Tick/Count))
system.mem_ctrl.dram.avgMemAccLat            28003.43                       # Average memory access latency per DRAM burst ((Tick/Count))
system.mem_ctrl.dram.readRowHits                 2409                       # Number of row buffer hits during reads (Count)
system.mem_ctrl.dram.writeRowHits                   0                       # Number of row buffer hits during writes (Count)
system.mem_ctrl.dram.readRowHitRate             71.27                       # Row buffer hit rate for reads (Ratio)
system.mem_ctrl.dram.writeRowHitRate              nan                       # Row buffer hit rate for writes (Ratio)
system.mem_ctrl.dram.bytesPerActivate::samples          970                       # Bytes accessed per row activation (Byte)
system.mem_ctrl.dram.bytesPerActivate::mean   222.944330                       # Bytes accessed per row activation (Byte)
system.mem_ctrl.dram.bytesPerActivate::gmean   128.668639                       # Bytes accessed per row activation (Byte)
system.mem_ctrl.dram.bytesPerActivate::stdev   290.265952                       # Bytes accessed per row activation (Byte)
system.mem_ctrl.dram.bytesPerActivate::0-127          513     52.89%     52.89% # Bytes accessed per row activation (Byte)
system.mem_ctrl.dram.bytesPerActivate::128-255          234     24.12%     77.01% # Bytes accessed per row activation (Byte)
system.mem_ctrl.dram.bytesPerActivate::256-383           52      5.36%     82.37% # Bytes accessed per row activation (Byte)
system.mem_ctrl.dram.bytesPerActivate::384-511           31      3.20%     85.57% # Bytes accessed per row activation (Byte)
system.mem_ctrl.dram.bytesPerActivate::512-639           19      1.96%     87.53% # Bytes accessed per row activation (Byte)
system.mem_ctrl.dram.bytesPerActivate::640-767           19      1.96%     89.48% # Bytes accessed per row activation (Byte)
system.mem_ctrl.dram.bytesPerActivate::768-895           14      1.44%     90.93% # Bytes accessed per row activation (Byte)
system.mem_ctrl.dram.bytesPerActivate::896-1023            8      0.82%     91.75% # Bytes accessed per row activation (Byte)
system.mem_ctrl.dram.bytesPerActivate::1024-1151           80      8.25%    100.00% # Bytes accessed per row activation (Byte)
system.mem_ctrl.dram.bytesPerActivate::total          970                       # Bytes accessed per row activation (Byte)
system.mem_ctrl.dram.bytesRead                 216320                       # Total bytes read (Byte)
system.mem_ctrl.dram.bytesWritten                   0                       # Total bytes written (Byte)
system.mem_ctrl.dram.avgRdBW                55.917628                       # Average DRAM read bandwidth in MiBytes/s ((Byte/Second))
system.mem_ctrl.dram.avgWrBW                        0                       # Average DRAM write bandwidth in MiBytes/s ((Byte/Second))
system.mem_ctrl.dram.peakBW                  19207.00                       # Theoretical peak bandwidth in MiByte/s ((Byte/Second))
system.mem_ctrl.dram.busUtil                     0.29                       # Data bus utilization in percentage (Ratio)
system.mem_ctrl.dram.busUtilRead                 0.29                       # Data bus utilization in percentage for reads (Ratio)
system.mem_ctrl.dram.busUtilWrite                0.00                       # Data bus utilization in percentage for writes (Ratio)
system.mem_ctrl.dram.pageHitRate                71.27                       # Row buffer hit rate, read and write combined (Ratio)
system.mem_ctrl.dram.power_state.pwrStateResidencyTicks::UNDEFINED   3868547500                       # Cumulative time (in ticks) in various power states (Tick)
system.mem_ctrl.dram.rank0.actEnergy     2535545.376000                       # Energy for activate commands per rank (pJ) (Joule)
system.mem_ctrl.dram.rank0.preEnergy     3366828.729600                       # Energy for precharge commands per rank (pJ) (Joule)
system.mem_ctrl.dram.rank0.readEnergy    10831265.760000                       # Energy for read commands per rank (pJ) (Joule)
system.mem_ctrl.dram.rank0.writeEnergy              0                       # Energy for write commands per rank (pJ) (Joule)
system.mem_ctrl.dram.rank0.refreshEnergy 687147303.091203                       # Energy for refresh commands per rank (pJ) (Joule)
system.mem_ctrl.dram.rank0.actBackEnergy 2154457668.081598                       # Energy for active background per rank (pJ) (Joule)
system.mem_ctrl.dram.rank0.preBackEnergy 869985498.547200                       # Energy for precharge background per rank (pJ) (Joule)
system.mem_ctrl.dram.rank0.actPowerDownEnergy            0                       # Energy for active power-down per rank (pJ) (Joule)
system.mem_ctrl.dram.rank0.prePowerDownEnergy            0                       # Energy for precharge power-down per rank (pJ) (Joule)
system.mem_ctrl.dram.rank0.selfRefreshEnergy            0                       # Energy for self refresh per rank (pJ) (Joule)
system.mem_ctrl.dram.rank0.totalEnergy   3728324109.585599                       # Total energy per rank (pJ) (Joule)
system.mem_ctrl.dram.rank0.averagePower    963.752961                       # Core power per rank (mW) (Watt)
system.mem_ctrl.dram.rank0.totalIdleTime            0                       # Total Idle time Per DRAM Rank (Tick)
system.mem_ctrl.dram.rank0.pwrStateTime::IDLE   1318833462                       # Time in different power states (Tick)
system.mem_ctrl.dram.rank0.pwrStateTime::REF    173600000                       # Time in different power states (Tick)
system.mem_ctrl.dram.rank0.pwrStateTime::SREF            0                       # Time in different power states (Tick)
system.mem_ctrl.dram.rank0.pwrStateTime::PRE_PDN            0                       # Time in different power states (Tick)
system.mem_ctrl.dram.rank0.pwrStateTime::ACT   2376114038                       # Time in different power states (Tick)
system.mem_ctrl.dram.rank0.pwrStateTime::ACT_PDN            0                       # Time in different power states (Tick)
system.mem_ctrl.dram.rank1.actEnergy     492762.816000                       # Energy for activate commands per rank (pJ) (Joule)
system.mem_ctrl.dram.rank1.preEnergy     655121.846400                       # Energy for precharge commands per rank (pJ) (Joule)
system.mem_ctrl.dram.rank1.readEnergy    3386085.024000                       # Energy for read commands per rank (pJ) (Joule)
system.mem_ctrl.dram.rank1.writeEnergy              0                       # Energy for write commands per rank (pJ) (Joule)
system.mem_ctrl.dram.rank1.refreshEnergy 687147303.091203                       # Energy for refresh commands per rank (pJ) (Joule)
system.mem_ctrl.dram.rank1.actBackEnergy 266946530.659195                       # Energy for active background per rank (pJ) (Joule)
system.mem_ctrl.dram.rank1.preBackEnergy 2320276541.990410                       # Energy for precharge background per rank (pJ) (Joule)
system.mem_ctrl.dram.rank1.actPowerDownEnergy            0                       # Energy for active power-down per rank (pJ) (Joule)
system.mem_ctrl.dram.rank1.prePowerDownEnergy            0                       # Energy for precharge power-down per rank (pJ) (Joule)
system.mem_ctrl.dram.rank1.selfRefreshEnergy            0                       # Energy for self refresh per rank (pJ) (Joule)
system.mem_ctrl.dram.rank1.totalEnergy   3278904345.427203                       # Total energy per rank (pJ) (Joule)
system.mem_ctrl.dram.rank1.averagePower    847.580221                       # Core power per rank (mW) (Watt)
system.mem_ctrl.dram.rank1.totalIdleTime            0                       # Total Idle time Per DRAM Rank (Tick)
system.mem_ctrl.dram.rank1.pwrStateTime::IDLE   3547282800                       # Time in different power states (Tick)
system.mem_ctrl.dram.rank1.pwrStateTime::REF    173600000                       # Time in different power states (Tick)
system.mem_ctrl.dram.rank1.pwrStateTime::SREF            0                       # Time in different power states (Tick)
system.mem_ctrl.dram.rank1.pwrStateTime::PRE_PDN            0                       # Time in different power states (Tick)
system.mem_ctrl.dram.rank1.pwrStateTime::ACT    147664700                       # Time in different power states (Tick)
system.mem_ctrl.dram.rank1.pwrStateTime::ACT_PDN            0                       # Time in different power states (Tick)
system.mem_ctrl.power_state.pwrStateResidencyTicks::UNDEFINED   3868547500                       # Cumulative time (in ticks) in various power states (Tick)
system.membus.transDist::ReadResp                1598                       # Transaction distribution (Count)
system.membus.transDist::WritebackDirty            11                       # Transaction distribution (Count)
system.membus.transDist::CleanEvict               116                       # Transaction distribution (Count)
system.membus.transDist::ReadExReq               1783                       # Transaction distribution (Count)
system.membus.transDist::ReadExResp              1783                       # Transaction distribution (Count)
system.membus.transDist::ReadSharedReq           1598                       # Transaction distribution (Count)
system.membus.pktCount_system.l2cache.mem_side_port::system.mem_ctrl.port         6889                       # Packet count per connected requestor and responder (Count)
system.membus.pktCount::total                    6889                       # Packet count per connected requestor and responder (Count)
system.membus.pktSize_system.l2cache.mem_side_port::system.mem_ctrl.port       217088                       # Cumulative packet size per connected requestor and responder (Byte)
system.membus.pktSize::total                   217088                       # Cumulative packet size per connected requestor and responder (Byte)
system.membus.snoops                                0                       # Total snoops (Count)
system.membus.snoopTraffic                          0                       # Total snoop traffic (Byte)
system.membus.snoopFanout::samples               3381                       # Request fanout histogram (Count)
system.membus.snoopFanout::mean                     0                       # Request fanout histogram (Count)
system.membus.snoopFanout::stdev                    0                       # Request fanout histogram (Count)
system.membus.snoopFanout::underflows               0      0.00%      0.00% # Request fanout histogram (Count)
system.membus.snoopFanout::0                     3381    100.00%    100.00% # Request fanout histogram (Count)
system.membus.snoopFanout::1                        0      0.00%    100.00% # Request fanout histogram (Count)
system.membus.snoopFanout::overflows                0      0.00%    100.00% # Request fanout histogram (Count)
system.membus.snoopFanout::min_value                0                       # Request fanout histogram (Count)
system.membus.snoopFanout::max_value                0                       # Request fanout histogram (Count)
system.membus.snoopFanout::total                 3381                       # Request fanout histogram (Count)
system.membus.power_state.pwrStateResidencyTicks::UNDEFINED   3868547500                       # Cumulative time (in ticks) in various power states (Tick)
system.membus.reqLayer0.occupancy             1776000                       # Layer occupancy (ticks) (Tick)
system.membus.reqLayer0.utilization               0.0                       # Layer utilization (Ratio)
system.membus.respLayer0.occupancy            8819918                       # Layer occupancy (ticks) (Tick)
system.membus.respLayer0.utilization              0.0                       # Layer utilization (Ratio)
system.membus.snoop_filter.totRequests           3508                       # Total number of requests made to the snoop filter. (Count)
system.membus.snoop_filter.hitSingleRequests          127                       # Number of requests hitting in the snoop filter with a single holder of the requested data. (Count)
system.membus.snoop_filter.hitMultiRequests            0                       # Number of requests hitting in the snoop filter with multiple (>1) holders of the requested data. (Count)
system.membus.snoop_filter.totSnoops                0                       # Total number of snoops made to the snoop filter. (Count)
system.membus.snoop_filter.hitSingleSnoops            0                       # Number of snoops hitting in the snoop filter with a single holder of the requested data. (Count)
system.membus.snoop_filter.hitMultiSnoops            0                       # Number of snoops hitting in the snoop filter with multiple (>1) holders of the requested data. (Count)
system.workload.inst.arm                            0                       # number of arm instructions executed (Count)
system.workload.inst.quiesce                        0                       # number of quiesce instructions executed (Count)

---------- End Simulation Statistics   ----------
