
---------- Begin Simulation Statistics ----------
simSeconds                                   0.003139                       # Number of seconds simulated (Second)
simTicks                                   3139469000                       # Number of ticks simulated (Tick)
finalTick                                  3139469000                       # Number of ticks from beginning of simulation (restored from checkpoints and never reset) (Tick)
simFreq                                  1000000000000                       # The number of ticks per simulated second ((Tick/Second))
hostSeconds                                     24.13                       # Real time elapsed on the host (Second)
hostTickRate                                130115779                       # The number of ticks simulated per host second (ticks/s) ((Tick/Second))
hostMemory                                    2256772                       # Number of bytes of host memory used (Byte)
simInsts                                     10000000                       # Number of instructions simulated (Count)
simOps                                       11814317                       # Number of ops (including micro ops) simulated (Count)
hostInstRate                                   414450                       # Simulator instruction rate (inst/s) ((Count/Second))
hostOpRate                                     489644                       # Simulator op (including micro ops) rate (op/s) ((Count/Second))
system.clk_domain.clock                           500                       # Clock period in ticks (Tick)
system.clk_domain.voltage_domain.voltage            1                       # Voltage in Volts (Volt)
system.cpu.numCycles                          6278939                       # Number of cpu cycles simulated (Cycle)
system.cpu.numWorkItemsStarted                      0                       # Number of work items this cpu started (Count)
system.cpu.numWorkItemsCompleted                    0                       # Number of work items this cpu completed (Count)
system.cpu.instsAdded                        15749669                       # Number of instructions added to the IQ (excludes non-spec) (Count)
system.cpu.nonSpecInstsAdded                      114                       # Number of non-speculative instructions added to the IQ (Count)
system.cpu.instsIssued                       13636837                       # Number of instructions issued (Count)
system.cpu.squashedInstsIssued                  77181                       # Number of squashed instructions issued (Count)
system.cpu.squashedInstsExamined              3935437                       # Number of squashed instructions iterated over during squash; mainly for profiling (Count)
system.cpu.squashedOperandsExamined          11757824                       # Number of squashed operands that are examined and possibly removed from graph (Count)
system.cpu.squashedNonSpecRemoved                  18                       # Number of squashed non-spec instructions that were removed (Count)
system.cpu.numIssuedDist::samples             6259801                       # Number of insts issued each cycle (Count)
system.cpu.numIssuedDist::mean               2.178478                       # Number of insts issued each cycle (Count)
system.cpu.numIssuedDist::stdev              2.064771                       # Number of insts issued each cycle (Count)
system.cpu.numIssuedDist::underflows                0      0.00%      0.00% # Number of insts issued each cycle (Count)
system.cpu.numIssuedDist::0                   1800348     28.76%     28.76% # Number of insts issued each cycle (Count)
system.cpu.numIssuedDist::1                    949178     15.16%     43.92% # Number of insts issued each cycle (Count)
system.cpu.numIssuedDist::2                   1174867     18.77%     62.69% # Number of insts issued each cycle (Count)
system.cpu.numIssuedDist::3                    786046     12.56%     75.25% # Number of insts issued each cycle (Count)
system.cpu.numIssuedDist::4                    659200     10.53%     85.78% # Number of insts issued each cycle (Count)
system.cpu.numIssuedDist::5                    381519      6.09%     91.87% # Number of insts issued each cycle (Count)
system.cpu.numIssuedDist::6                    269856      4.31%     96.19% # Number of insts issued each cycle (Count)
system.cpu.numIssuedDist::7                     94040      1.50%     97.69% # Number of insts issued each cycle (Count)
system.cpu.numIssuedDist::8                    144747      2.31%    100.00% # Number of insts issued each cycle (Count)
system.cpu.numIssuedDist::overflows                 0      0.00%    100.00% # Number of insts issued each cycle (Count)
system.cpu.numIssuedDist::min_value                 0                       # Number of insts issued each cycle (Count)
system.cpu.numIssuedDist::max_value                 8                       # Number of insts issued each cycle (Count)
system.cpu.numIssuedDist::total               6259801                       # Number of insts issued each cycle (Count)
system.cpu.statFuBusy::No_OpClass                   0      0.00%      0.00% # attempts to use FU when none available (Count)
system.cpu.statFuBusy::IntAlu                   34004     85.19%     85.19% # attempts to use FU when none available (Count)
system.cpu.statFuBusy::IntMult                      0      0.00%     85.19% # attempts to use FU when none available (Count)
system.cpu.statFuBusy::IntDiv                       0      0.00%     85.19% # attempts to use FU when none available (Count)
system.cpu.statFuBusy::FloatAdd                     0      0.00%     85.19% # attempts to use FU when none available (Count)
system.cpu.statFuBusy::FloatCmp                     0      0.00%     85.19% # attempts to use FU when none available (Count)
system.cpu.statFuBusy::FloatCvt                     0      0.00%     85.19% # attempts to use FU when none available (Count)
system.cpu.statFuBusy::FloatMult                    0      0.00%     85.19% # attempts to use FU when none available (Count)
system.cpu.statFuBusy::FloatMultAcc                 0      0.00%     85.19% # attempts to use FU when none available (Count)
system.cpu.statFuBusy::FloatDiv                     0      0.00%     85.19% # attempts to use FU when none available (Count)
system.cpu.statFuBusy::FloatMisc                    0      0.00%     85.19% # attempts to use FU when none available (Count)
system.cpu.statFuBusy::FloatSqrt                    0      0.00%     85.19% # attempts to use FU when none available (Count)
system.cpu.statFuBusy::SimdAdd                      0      0.00%     85.19% # attempts to use FU when none available (Count)
system.cpu.statFuBusy::SimdAddAcc                   0      0.00%     85.19% # attempts to use FU when none available (Count)
system.cpu.statFuBusy::SimdAlu                      0      0.00%     85.19% # attempts to use FU when none available (Count)
system.cpu.statFuBusy::SimdCmp                      0      0.00%     85.19% # attempts to use FU when none available (Count)
system.cpu.statFuBusy::SimdCvt                      0      0.00%     85.19% # attempts to use FU when none available (Count)
system.cpu.statFuBusy::SimdMisc                     0      0.00%     85.19% # attempts to use FU when none available (Count)
system.cpu.statFuBusy::SimdMult                     0      0.00%     85.19% # attempts to use FU when none available (Count)
system.cpu.statFuBusy::SimdMultAcc                  0      0.00%     85.19% # attempts to use FU when none available (Count)
system.cpu.statFuBusy::SimdShift                    0      0.00%     85.19% # attempts to use FU when none available (Count)
system.cpu.statFuBusy::SimdShiftAcc                 0      0.00%     85.19% # attempts to use FU when none available (Count)
system.cpu.statFuBusy::SimdDiv                      0      0.00%     85.19% # attempts to use FU when none available (Count)
system.cpu.statFuBusy::SimdSqrt                     0      0.00%     85.19% # attempts to use FU when none available (Count)
system.cpu.statFuBusy::SimdFloatAdd                 0      0.00%     85.19% # attempts to use FU when none available (Count)
system.cpu.statFuBusy::SimdFloatAlu                 0      0.00%     85.19% # attempts to use FU when none available (Count)
system.cpu.statFuBusy::SimdFloatCmp                 0      0.00%     85.19% # attempts to use FU when none available (Count)
system.cpu.statFuBusy::SimdFloatCvt                 0      0.00%     85.19% # attempts to use FU when none available (Count)
system.cpu.statFuBusy::SimdFloatDiv                 0      0.00%     85.19% # attempts to use FU when none available (Count)
system.cpu.statFuBusy::SimdFloatMisc                0      0.00%     85.19% # attempts to use FU when none available (Count)
system.cpu.statFuBusy::SimdFloatMult                0      0.00%     85.19% # attempts to use FU when none available (Count)
system.cpu.statFuBusy::SimdFloatMultAcc             0      0.00%     85.19% # attempts to use FU when none available (Count)
system.cpu.statFuBusy::SimdFloatSqrt                0      0.00%     85.19% # attempts to use FU when none available (Count)
system.cpu.statFuBusy::SimdReduceAdd                0      0.00%     85.19% # attempts to use FU when none available (Count)
system.cpu.statFuBusy::SimdReduceAlu                0      0.00%     85.19% # attempts to use FU when none available (Count)
system.cpu.statFuBusy::SimdReduceCmp                0      0.00%     85.19% # attempts to use FU when none available (Count)
system.cpu.statFuBusy::SimdFloatReduceAdd            0      0.00%     85.19% # attempts to use FU when none available (Count)
system.cpu.statFuBusy::SimdFloatReduceCmp            0      0.00%     85.19% # attempts to use FU when none available (Count)
system.cpu.statFuBusy::SimdAes                      0      0.00%     85.19% # attempts to use FU when none available (Count)
system.cpu.statFuBusy::SimdAesMix                   0      0.00%     85.19% # attempts to use FU when none available (Count)
system.cpu.statFuBusy::SimdSha1Hash                 0      0.00%     85.19% # attempts to use FU when none available (Count)
system.cpu.statFuBusy::SimdSha1Hash2                0      0.00%     85.19% # attempts to use FU when none available (Count)
system.cpu.statFuBusy::SimdSha256Hash               0      0.00%     85.19% # attempts to use FU when none available (Count)
system.cpu.statFuBusy::SimdSha256Hash2              0      0.00%     85.19% # attempts to use FU when none available (Count)
system.cpu.statFuBusy::SimdShaSigma2                0      0.00%     85.19% # attempts to use FU when none available (Count)
system.cpu.statFuBusy::SimdShaSigma3                0      0.00%     85.19% # attempts to use FU when none available (Count)
system.cpu.statFuBusy::SimdPredAlu                  0      0.00%     85.19% # attempts to use FU when none available (Count)
system.cpu.statFuBusy::MemRead                   4834     12.11%     97.30% # attempts to use FU when none available (Count)
system.cpu.statFuBusy::MemWrite                  1076      2.70%    100.00% # attempts to use FU when none available (Count)
system.cpu.statFuBusy::FloatMemRead                 0      0.00%    100.00% # attempts to use FU when none available (Count)
system.cpu.statFuBusy::FloatMemWrite                0      0.00%    100.00% # attempts to use FU when none available (Count)
system.cpu.statFuBusy::IprAccess                    0      0.00%    100.00% # attempts to use FU when none available (Count)
system.cpu.statFuBusy::InstPrefetch                 0      0.00%    100.00% # attempts to use FU when none available (Count)
system.cpu.statIssuedInstType_0::No_OpClass            1      0.00%      0.00% # Number of instructions issued per FU type, per thread (Count)
system.cpu.statIssuedInstType_0::IntAlu      10855644     79.61%     79.61% # Number of instructions issued per FU type, per thread (Count)
system.cpu.statIssuedInstType_0::IntMult       197689      1.45%     81.05% # Number of instructions issued per FU type, per thread (Count)
system.cpu.statIssuedInstType_0::IntDiv             0      0.00%     81.05% # Number of instructions issued per FU type, per thread (Count)
system.cpu.statIssuedInstType_0::FloatAdd            0      0.00%     81.05% # Number of instructions issued per FU type, per thread (Count)
system.cpu.statIssuedInstType_0::FloatCmp            0      0.00%     81.05% # Number of instructions issued per FU type, per thread (Count)
system.cpu.statIssuedInstType_0::FloatCvt            0      0.00%     81.05% # Number of instructions issued per FU type, per thread (Count)
system.cpu.statIssuedInstType_0::FloatMult            0      0.00%     81.05% # Number of instructions issued per FU type, per thread (Count)
system.cpu.statIssuedInstType_0::FloatMultAcc            0      0.00%     81.05% # Number of instructions issued per FU type, per thread (Count)
system.cpu.statIssuedInstType_0::FloatDiv            0      0.00%     81.05% # Number of instructions issued per FU type, per thread (Count)
system.cpu.statIssuedInstType_0::FloatMisc            0      0.00%     81.05% # Number of instructions issued per FU type, per thread (Count)
system.cpu.statIssuedInstType_0::FloatSqrt            0      0.00%     81.05% # Number of instructions issued per FU type, per thread (Count)
system.cpu.statIssuedInstType_0::SimdAdd            0      0.00%     81.05% # Number of instructions issued per FU type, per thread (Count)
system.cpu.statIssuedInstType_0::SimdAddAcc            0      0.00%     81.05% # Number of instructions issued per FU type, per thread (Count)
system.cpu.statIssuedInstType_0::SimdAlu            0      0.00%     81.05% # Number of instructions issued per FU type, per thread (Count)
system.cpu.statIssuedInstType_0::SimdCmp            0      0.00%     81.05% # Number of instructions issued per FU type, per thread (Count)
system.cpu.statIssuedInstType_0::SimdCvt            0      0.00%     81.05% # Number of instructions issued per FU type, per thread (Count)
system.cpu.statIssuedInstType_0::SimdMisc            0      0.00%     81.05% # Number of instructions issued per FU type, per thread (Count)
system.cpu.statIssuedInstType_0::SimdMult            0      0.00%     81.05% # Number of instructions issued per FU type, per thread (Count)
system.cpu.statIssuedInstType_0::SimdMultAcc            0      0.00%     81.05% # Number of instructions issued per FU type, per thread (Count)
system.cpu.statIssuedInstType_0::SimdShift            0      0.00%     81.05% # Number of instructions issued per FU type, per thread (Count)
system.cpu.statIssuedInstType_0::SimdShiftAcc            0      0.00%     81.05% # Number of instructions issued per FU type, per thread (Count)
system.cpu.statIssuedInstType_0::SimdDiv            0      0.00%     81.05% # Number of instructions issued per FU type, per thread (Count)
system.cpu.statIssuedInstType_0::SimdSqrt            0      0.00%     81.05% # Number of instructions issued per FU type, per thread (Count)
system.cpu.statIssuedInstType_0::SimdFloatAdd            0      0.00%     81.05% # Number of instructions issued per FU type, per thread (Count)
system.cpu.statIssuedInstType_0::SimdFloatAlu            0      0.00%     81.05% # Number of instructions issued per FU type, per thread (Count)
system.cpu.statIssuedInstType_0::SimdFloatCmp            0      0.00%     81.05% # Number of instructions issued per FU type, per thread (Count)
system.cpu.statIssuedInstType_0::SimdFloatCvt            0      0.00%     81.05% # Number of instructions issued per FU type, per thread (Count)
system.cpu.statIssuedInstType_0::SimdFloatDiv            0      0.00%     81.05% # Number of instructions issued per FU type, per thread (Count)
system.cpu.statIssuedInstType_0::SimdFloatMisc            0      0.00%     81.05% # Number of instructions issued per FU type, per thread (Count)
system.cpu.statIssuedInstType_0::SimdFloatMult            0      0.00%     81.05% # Number of instructions issued per FU type, per thread (Count)
system.cpu.statIssuedInstType_0::SimdFloatMultAcc            0      0.00%     81.05% # Number of instructions issued per FU type, per thread (Count)
system.cpu.statIssuedInstType_0::SimdFloatSqrt            0      0.00%     81.05% # Number of instructions issued per FU type, per thread (Count)
system.cpu.statIssuedInstType_0::SimdReduceAdd            0      0.00%     81.05% # Number of instructions issued per FU type, per thread (Count)
system.cpu.statIssuedInstType_0::SimdReduceAlu            0      0.00%     81.05% # Number of instructions issued per FU type, per thread (Count)
system.cpu.statIssuedInstType_0::SimdReduceCmp            0      0.00%     81.05% # Number of instructions issued per FU type, per thread (Count)
system.cpu.statIssuedInstType_0::SimdFloatReduceAdd            0      0.00%     81.05% # Number of instructions issued per FU type, per thread (Count)
system.cpu.statIssuedInstType_0::SimdFloatReduceCmp            0      0.00%     81.05% # Number of instructions issued per FU type, per thread (Count)
system.cpu.statIssuedInstType_0::SimdAes            0      0.00%     81.05% # Number of instructions issued per FU type, per thread (Count)
system.cpu.statIssuedInstType_0::SimdAesMix            0      0.00%     81.05% # Number of instructions issued per FU type, per thread (Count)
system.cpu.statIssuedInstType_0::SimdSha1Hash            0      0.00%     81.05% # Number of instructions issued per FU type, per thread (Count)
system.cpu.statIssuedInstType_0::SimdSha1Hash2            0      0.00%     81.05% # Number of instructions issued per FU type, per thread (Count)
system.cpu.statIssuedInstType_0::SimdSha256Hash            0      0.00%     81.05% # Number of instructions issued per FU type, per thread (Count)
system.cpu.statIssuedInstType_0::SimdSha256Hash2            0      0.00%     81.05% # Number of instructions issued per FU type, per thread (Count)
system.cpu.statIssuedInstType_0::SimdShaSigma2            0      0.00%     81.05% # Number of instructions issued per FU type, per thread (Count)
system.cpu.statIssuedInstType_0::SimdShaSigma3            0      0.00%     81.05% # Number of instructions issued per FU type, per thread (Count)
system.cpu.statIssuedInstType_0::SimdPredAlu            0      0.00%     81.05% # Number of instructions issued per FU type, per thread (Count)
system.cpu.statIssuedInstType_0::MemRead      1424482     10.45%     91.50% # Number of instructions issued per FU type, per thread (Count)
system.cpu.statIssuedInstType_0::MemWrite      1159021      8.50%    100.00% # Number of instructions issued per FU type, per thread (Count)
system.cpu.statIssuedInstType_0::FloatMemRead            0      0.00%    100.00% # Number of instructions issued per FU type, per thread (Count)
system.cpu.statIssuedInstType_0::FloatMemWrite            0      0.00%    100.00% # Number of instructions issued per FU type, per thread (Count)
system.cpu.statIssuedInstType_0::IprAccess            0      0.00%    100.00% # Number of instructions issued per FU type, per thread (Count)
system.cpu.statIssuedInstType_0::InstPrefetch            0      0.00%    100.00% # Number of instructions issued per FU type, per thread (Count)
system.cpu.statIssuedInstType_0::total       13636837                       # Number of instructions issued per FU type, per thread (Count)
system.cpu.issueRate                         2.171838                       # Inst issue rate ((Count/Cycle))
system.cpu.fuBusy                               39914                       # FU busy when requested (Count)
system.cpu.fuBusyRate                        0.002927                       # FU busy rate (busy events/executed inst) ((Count/Count))
system.cpu.intInstQueueReads                 33650568                       # Number of integer instruction queue reads (Count)
system.cpu.intInstQueueWrites                19685404                       # Number of integer instruction queue writes (Count)
system.cpu.intInstQueueWakeupAccesses        13176133                       # Number of integer instruction queue wakeup accesses (Count)
system.cpu.fpInstQueueReads                         0                       # Number of floating instruction queue reads (Count)
system.cpu.fpInstQueueWrites                        0                       # Number of floating instruction queue writes (Count)
system.cpu.fpInstQueueWakeupAccesses                0                       # Number of floating instruction queue wakeup accesses (Count)
system.cpu.vecInstQueueReads                        0                       # Number of vector instruction queue reads (Count)
system.cpu.vecInstQueueWrites                       0                       # Number of vector instruction queue writes (Count)
system.cpu.vecInstQueueWakeupAccesses               0                       # Number of vector instruction queue wakeup accesses (Count)
system.cpu.intAluAccesses                    13676750                       # Number of integer alu accesses (Count)
system.cpu.fpAluAccesses                            0                       # Number of floating point alu accesses (Count)
system.cpu.vecAluAccesses                           0                       # Number of vector alu accesses (Count)
system.cpu.numInsts                          13432515                       # Number of executed instructions (Count)
system.cpu.numLoadInsts                       1391278                       # Number of load instructions executed (Count)
system.cpu.numSquashedInsts                    204320                       # Number of squashed instructions skipped in execute (Count)
system.cpu.numSwp                                   0                       # Number of swp insts executed (Count)
system.cpu.numNop                                   0                       # Number of nop insts executed (Count)
system.cpu.numRefs                            2514983                       # Number of memory reference insts executed (Count)
system.cpu.numBranches                        1618209                       # Number of branches executed (Count)
system.cpu.numStoreInsts                      1123705                       # Number of stores executed (Count)
system.cpu.numRate                           2.139297                       # Inst execution rate ((Count/Cycle))
system.cpu.timesIdled                             197                       # Number of times that the entire CPU went into an idle state and unscheduled itself (Count)
system.cpu.idleCycles                           19138                       # Total number of cycles that the CPU has spent unscheduled due to idling (Cycle)
system.cpu.committedInsts                    10000000                       # Number of Instructions Simulated (Count)
system.cpu.committedOps                      11814317                       # Number of Ops (including micro ops) Simulated (Count)
system.cpu.cpi                               0.627894                       # CPI: Cycles Per Instruction ((Cycle/Count))
system.cpu.totalCpi                          0.627894                       # CPI: Total CPI of All Threads ((Cycle/Count))
system.cpu.ipc                               1.592626                       # IPC: Instructions Per Cycle ((Count/Cycle))
system.cpu.totalIpc                          1.592626                       # IPC: Total IPC of All Threads ((Count/Cycle))
system.cpu.intRegfileReads                   17051908                       # Number of integer regfile reads (Count)
system.cpu.intRegfileWrites                  10591616                       # Number of integer regfile writes (Count)
system.cpu.vecRegfileReads                         32                       # number of vector regfile reads (Count)
system.cpu.ccRegfileReads                    43931669                       # number of cc regfile reads (Count)
system.cpu.ccRegfileWrites                    5334812                       # number of cc regfile writes (Count)
system.cpu.miscRegfileReads                   2267897                       # number of misc regfile reads (Count)
system.cpu.miscRegfileWrites                      165                       # number of misc regfile writes (Count)
system.cpu.MemDepUnit__0.insertedLoads        1360414                       # Number of loads inserted to the mem dependence unit. (Count)
system.cpu.MemDepUnit__0.insertedStores       1339890                       # Number of stores inserted to the mem dependence unit. (Count)
system.cpu.MemDepUnit__0.conflictingLoads       213407                       # Number of conflicting loads. (Count)
system.cpu.MemDepUnit__0.conflictingStores       426902                       # Number of conflicting stores. (Count)
system.cpu.MemDepUnit__1.insertedLoads              0                       # Number of loads inserted to the mem dependence unit. (Count)
system.cpu.MemDepUnit__1.insertedStores             0                       # Number of stores inserted to the mem dependence unit. (Count)
system.cpu.MemDepUnit__1.conflictingLoads            0                       # Number of conflicting loads. (Count)
system.cpu.MemDepUnit__1.conflictingStores            0                       # Number of conflicting stores. (Count)
system.cpu.MemDepUnit__2.insertedLoads              0                       # Number of loads inserted to the mem dependence unit. (Count)
system.cpu.MemDepUnit__2.insertedStores             0                       # Number of stores inserted to the mem dependence unit. (Count)
system.cpu.MemDepUnit__2.conflictingLoads            0                       # Number of conflicting loads. (Count)
system.cpu.MemDepUnit__2.conflictingStores            0                       # Number of conflicting stores. (Count)
system.cpu.MemDepUnit__3.insertedLoads              0                       # Number of loads inserted to the mem dependence unit. (Count)
system.cpu.MemDepUnit__3.insertedStores             0                       # Number of stores inserted to the mem dependence unit. (Count)
system.cpu.MemDepUnit__3.conflictingLoads            0                       # Number of conflicting loads. (Count)
system.cpu.MemDepUnit__3.conflictingStores            0                       # Number of conflicting stores. (Count)
system.cpu.branchPred.lookups                 2327132                       # Number of BP lookups (Count)
system.cpu.branchPred.condPredicted           1557810                       # Number of conditional branches predicted (Count)
system.cpu.branchPred.condIncorrect            152819                       # Number of conditional branches incorrect (Count)
system.cpu.branchPred.BTBLookups              1435139                       # Number of BTB lookups (Count)
system.cpu.branchPred.BTBHits                 1235111                       # Number of BTB hits (Count)
system.cpu.branchPred.BTBHitRatio            0.860621                       # BTB Hit Ratio (Ratio)
system.cpu.branchPred.RASUsed                  504477                       # Number of times the RAS was used to get a target. (Count)
system.cpu.branchPred.RASIncorrect              59047                       # Number of incorrect RAS predictions. (Count)
system.cpu.branchPred.indirectLookups             227                       # Number of indirect predictor lookups. (Count)
system.cpu.branchPred.indirectHits                 31                       # Number of indirect target hits. (Count)
system.cpu.branchPred.indirectMisses              196                       # Number of indirect misses. (Count)
system.cpu.branchPred.indirectMispredicted           77                       # Number of mispredicted indirect branches. (Count)
system.cpu.commit.commitSquashedInsts         3931016                       # The number of squashed insts skipped by commit (Count)
system.cpu.commit.commitNonSpecStalls              96                       # The number of times commit has been forced to stall to communicate backwards (Count)
system.cpu.commit.branchMispredicts            152645                       # The number of times a branch was mispredicted (Count)
system.cpu.commit.numCommittedDist::samples      5714974                       # Number of insts commited each cycle (Count)
system.cpu.commit.numCommittedDist::mean     2.067256                       # Number of insts commited each cycle (Count)
system.cpu.commit.numCommittedDist::stdev     2.370136                       # Number of insts commited each cycle (Count)
system.cpu.commit.numCommittedDist::underflows            0      0.00%      0.00% # Number of insts commited each cycle (Count)
system.cpu.commit.numCommittedDist::0         1825435     31.94%     31.94% # Number of insts commited each cycle (Count)
system.cpu.commit.numCommittedDist::1         1521802     26.63%     58.57% # Number of insts commited each cycle (Count)
system.cpu.commit.numCommittedDist::2          470324      8.23%     66.80% # Number of insts commited each cycle (Count)
system.cpu.commit.numCommittedDist::3          644924     11.28%     78.08% # Number of insts commited each cycle (Count)
system.cpu.commit.numCommittedDist::4          372371      6.52%     84.60% # Number of insts commited each cycle (Count)
system.cpu.commit.numCommittedDist::5          218178      3.82%     88.42% # Number of insts commited each cycle (Count)
system.cpu.commit.numCommittedDist::6          212678      3.72%     92.14% # Number of insts commited each cycle (Count)
system.cpu.commit.numCommittedDist::7           33443      0.59%     92.72% # Number of insts commited each cycle (Count)
system.cpu.commit.numCommittedDist::8          415819      7.28%    100.00% # Number of insts commited each cycle (Count)
system.cpu.commit.numCommittedDist::overflows            0      0.00%    100.00% # Number of insts commited each cycle (Count)
system.cpu.commit.numCommittedDist::min_value            0                       # Number of insts commited each cycle (Count)
system.cpu.commit.numCommittedDist::max_value            8                       # Number of insts commited each cycle (Count)
system.cpu.commit.numCommittedDist::total      5714974                       # Number of insts commited each cycle (Count)
system.cpu.commit.instsCommitted             10000000                       # Number of instructions committed (Count)
system.cpu.commit.opsCommitted               11814317                       # Number of ops (including micro ops) committed (Count)
system.cpu.commit.memRefs                     2148215                       # Number of memory references committed (Count)
system.cpu.commit.loads                       1047177                       # Number of loads committed (Count)
system.cpu.commit.amos                              0                       # Number of atomic instructions committed (Count)
system.cpu.commit.membars                          42                       # Number of memory barriers committed (Count)
system.cpu.commit.branches                    1423131                       # Number of branches committed (Count)
system.cpu.commit.vectorInstructions                0                       # Number of committed Vector instructions. (Count)
system.cpu.commit.floating                          0                       # Number of committed floating point instructions. (Count)
system.cpu.commit.integer                    11217603                       # Number of committed integer instructions. (Count)
system.cpu.commit.functionCalls                386128                       # Number of function calls committed. (Count)
system.cpu.commit.committedInstType_0::No_OpClass            0      0.00%      0.00% # Class of committed instruction (Count)
system.cpu.commit.committedInstType_0::IntAlu      9476257     80.21%     80.21% # Class of committed instruction (Count)
system.cpu.commit.committedInstType_0::IntMult       189845      1.61%     81.82% # Class of committed instruction (Count)
system.cpu.commit.committedInstType_0::IntDiv            0      0.00%     81.82% # Class of committed instruction (Count)
system.cpu.commit.committedInstType_0::FloatAdd            0      0.00%     81.82% # Class of committed instruction (Count)
system.cpu.commit.committedInstType_0::FloatCmp            0      0.00%     81.82% # Class of committed instruction (Count)
system.cpu.commit.committedInstType_0::FloatCvt            0      0.00%     81.82% # Class of committed instruction (Count)
system.cpu.commit.committedInstType_0::FloatMult            0      0.00%     81.82% # Class of committed instruction (Count)
system.cpu.commit.committedInstType_0::FloatMultAcc            0      0.00%     81.82% # Class of committed instruction (Count)
system.cpu.commit.committedInstType_0::FloatDiv            0      0.00%     81.82% # Class of committed instruction (Count)
system.cpu.commit.committedInstType_0::FloatMisc            0      0.00%     81.82% # Class of committed instruction (Count)
system.cpu.commit.committedInstType_0::FloatSqrt            0      0.00%     81.82% # Class of committed instruction (Count)
system.cpu.commit.committedInstType_0::SimdAdd            0      0.00%     81.82% # Class of committed instruction (Count)
system.cpu.commit.committedInstType_0::SimdAddAcc            0      0.00%     81.82% # Class of committed instruction (Count)
system.cpu.commit.committedInstType_0::SimdAlu            0      0.00%     81.82% # Class of committed instruction (Count)
system.cpu.commit.committedInstType_0::SimdCmp            0      0.00%     81.82% # Class of committed instruction (Count)
system.cpu.commit.committedInstType_0::SimdCvt            0      0.00%     81.82% # Class of committed instruction (Count)
system.cpu.commit.committedInstType_0::SimdMisc            0      0.00%     81.82% # Class of committed instruction (Count)
system.cpu.commit.committedInstType_0::SimdMult            0      0.00%     81.82% # Class of committed instruction (Count)
system.cpu.commit.committedInstType_0::SimdMultAcc            0      0.00%     81.82% # Class of committed instruction (Count)
system.cpu.commit.committedInstType_0::SimdShift            0      0.00%     81.82% # Class of committed instruction (Count)
system.cpu.commit.committedInstType_0::SimdShiftAcc            0      0.00%     81.82% # Class of committed instruction (Count)
system.cpu.commit.committedInstType_0::SimdDiv            0      0.00%     81.82% # Class of committed instruction (Count)
system.cpu.commit.committedInstType_0::SimdSqrt            0      0.00%     81.82% # Class of committed instruction (Count)
system.cpu.commit.committedInstType_0::SimdFloatAdd            0      0.00%     81.82% # Class of committed instruction (Count)
system.cpu.commit.committedInstType_0::SimdFloatAlu            0      0.00%     81.82% # Class of committed instruction (Count)
system.cpu.commit.committedInstType_0::SimdFloatCmp            0      0.00%     81.82% # Class of committed instruction (Count)
system.cpu.commit.committedInstType_0::SimdFloatCvt            0      0.00%     81.82% # Class of committed instruction (Count)
system.cpu.commit.committedInstType_0::SimdFloatDiv            0      0.00%     81.82% # Class of committed instruction (Count)
system.cpu.commit.committedInstType_0::SimdFloatMisc            0      0.00%     81.82% # Class of committed instruction (Count)
system.cpu.commit.committedInstType_0::SimdFloatMult            0      0.00%     81.82% # Class of committed instruction (Count)
system.cpu.commit.committedInstType_0::SimdFloatMultAcc            0      0.00%     81.82% # Class of committed instruction (Count)
system.cpu.commit.committedInstType_0::SimdFloatSqrt            0      0.00%     81.82% # Class of committed instruction (Count)
system.cpu.commit.committedInstType_0::SimdReduceAdd            0      0.00%     81.82% # Class of committed instruction (Count)
system.cpu.commit.committedInstType_0::SimdReduceAlu            0      0.00%     81.82% # Class of committed instruction (Count)
system.cpu.commit.committedInstType_0::SimdReduceCmp            0      0.00%     81.82% # Class of committed instruction (Count)
system.cpu.commit.committedInstType_0::SimdFloatReduceAdd            0      0.00%     81.82% # Class of committed instruction (Count)
system.cpu.commit.committedInstType_0::SimdFloatReduceCmp            0      0.00%     81.82% # Class of committed instruction (Count)
system.cpu.commit.committedInstType_0::SimdAes            0      0.00%     81.82% # Class of committed instruction (Count)
system.cpu.commit.committedInstType_0::SimdAesMix            0      0.00%     81.82% # Class of committed instruction (Count)
system.cpu.commit.committedInstType_0::SimdSha1Hash            0      0.00%     81.82% # Class of committed instruction (Count)
system.cpu.commit.committedInstType_0::SimdSha1Hash2            0      0.00%     81.82% # Class of committed instruction (Count)
system.cpu.commit.committedInstType_0::SimdSha256Hash            0      0.00%     81.82% # Class of committed instruction (Count)
system.cpu.commit.committedInstType_0::SimdSha256Hash2            0      0.00%     81.82% # Class of committed instruction (Count)
system.cpu.commit.committedInstType_0::SimdShaSigma2            0      0.00%     81.82% # Class of committed instruction (Count)
system.cpu.commit.committedInstType_0::SimdShaSigma3            0      0.00%     81.82% # Class of committed instruction (Count)
system.cpu.commit.committedInstType_0::SimdPredAlu            0      0.00%     81.82% # Class of committed instruction (Count)
system.cpu.commit.committedInstType_0::MemRead      1047177      8.86%     90.68% # Class of committed instruction (Count)
system.cpu.commit.committedInstType_0::MemWrite      1101038      9.32%    100.00% # Class of committed instruction (Count)
system.cpu.commit.committedInstType_0::FloatMemRead            0      0.00%    100.00% # Class of committed instruction (Count)
system.cpu.commit.committedInstType_0::FloatMemWrite            0      0.00%    100.00% # Class of committed instruction (Count)
system.cpu.commit.committedInstType_0::IprAccess            0      0.00%    100.00% # Class of committed instruction (Count)
system.cpu.commit.committedInstType_0::InstPrefetch            0      0.00%    100.00% # Class of committed instruction (Count)
system.cpu.commit.committedInstType_0::total     11814317                       # Class of committed instruction (Count)
system.cpu.commit.commitEligibleSamples        415819                       # number cycles where commit BW limit reached (Cycle)
system.cpu.dcache.demandHits::cpu.data        2174400                       # number of demand (read+write) hits (Count)
system.cpu.dcache.demandHits::total           2174400                       # number of demand (read+write) hits (Count)
system.cpu.dcache.overallHits::cpu.data       2174400                       # number of overall hits (Count)
system.cpu.dcache.overallHits::total          2174400                       # number of overall hits (Count)
system.cpu.dcache.demandMisses::cpu.data        25853                       # number of demand (read+write) misses (Count)
system.cpu.dcache.demandMisses::total           25853                       # number of demand (read+write) misses (Count)
system.cpu.dcache.overallMisses::cpu.data        25853                       # number of overall misses (Count)
system.cpu.dcache.overallMisses::total          25853                       # number of overall misses (Count)
system.cpu.dcache.demandMissLatency::cpu.data   1426769998                       # number of demand (read+write) miss ticks (Tick)
system.cpu.dcache.demandMissLatency::total   1426769998                       # number of demand (read+write) miss ticks (Tick)
system.cpu.dcache.overallMissLatency::cpu.data   1426769998                       # number of overall miss ticks (Tick)
system.cpu.dcache.overallMissLatency::total   1426769998                       # number of overall miss ticks (Tick)
system.cpu.dcache.demandAccesses::cpu.data      2200253                       # number of demand (read+write) accesses (Count)
system.cpu.dcache.demandAccesses::total       2200253                       # number of demand (read+write) accesses (Count)
system.cpu.dcache.overallAccesses::cpu.data      2200253                       # number of overall (read+write) accesses (Count)
system.cpu.dcache.overallAccesses::total      2200253                       # number of overall (read+write) accesses (Count)
system.cpu.dcache.demandMissRate::cpu.data     0.011750                       # miss rate for demand accesses (Ratio)
system.cpu.dcache.demandMissRate::total      0.011750                       # miss rate for demand accesses (Ratio)
system.cpu.dcache.overallMissRate::cpu.data     0.011750                       # miss rate for overall accesses (Ratio)
system.cpu.dcache.overallMissRate::total     0.011750                       # miss rate for overall accesses (Ratio)
system.cpu.dcache.demandAvgMissLatency::cpu.data 55187.792442                       # average overall miss latency in ticks ((Tick/Count))
system.cpu.dcache.demandAvgMissLatency::total 55187.792442                       # average overall miss latency in ticks ((Tick/Count))
system.cpu.dcache.overallAvgMissLatency::cpu.data 55187.792442                       # average overall miss latency ((Tick/Count))
system.cpu.dcache.overallAvgMissLatency::total 55187.792442                       # average overall miss latency ((Tick/Count))
system.cpu.dcache.blockedCycles::no_mshrs          416                       # number of cycles access was blocked (Cycle)
system.cpu.dcache.blockedCycles::no_targets            0                       # number of cycles access was blocked (Cycle)
system.cpu.dcache.blockedCauses::no_mshrs           10                       # number of times access was blocked (Count)
system.cpu.dcache.blockedCauses::no_targets            0                       # number of times access was blocked (Count)
system.cpu.dcache.avgBlocked::no_mshrs      41.600000                       # average number of cycles each access was blocked ((Cycle/Count))
system.cpu.dcache.avgBlocked::no_targets          nan                       # average number of cycles each access was blocked ((Cycle/Count))
system.cpu.dcache.writebacks::writebacks         6451                       # number of writebacks (Count)
system.cpu.dcache.writebacks::total              6451                       # number of writebacks (Count)
system.cpu.dcache.demandMshrHits::cpu.data        18804                       # number of demand (read+write) MSHR hits (Count)
system.cpu.dcache.demandMshrHits::total         18804                       # number of demand (read+write) MSHR hits (Count)
system.cpu.dcache.overallMshrHits::cpu.data        18804                       # number of overall MSHR hits (Count)
system.cpu.dcache.overallMshrHits::total        18804                       # number of overall MSHR hits (Count)
system.cpu.dcache.demandMshrMisses::cpu.data         7049                       # number of demand (read+write) MSHR misses (Count)
system.cpu.dcache.demandMshrMisses::total         7049                       # number of demand (read+write) MSHR misses (Count)
system.cpu.dcache.overallMshrMisses::cpu.data         7049                       # number of overall MSHR misses (Count)
system.cpu.dcache.overallMshrMisses::total         7049                       # number of overall MSHR misses (Count)
system.cpu.dcache.demandMshrMissLatency::cpu.data    530006499                       # number of demand (read+write) MSHR miss ticks (Tick)
system.cpu.dcache.demandMshrMissLatency::total    530006499                       # number of demand (read+write) MSHR miss ticks (Tick)
system.cpu.dcache.overallMshrMissLatency::cpu.data    530006499                       # number of overall MSHR miss ticks (Tick)
system.cpu.dcache.overallMshrMissLatency::total    530006499                       # number of overall MSHR miss ticks (Tick)
system.cpu.dcache.demandMshrMissRate::cpu.data     0.003204                       # mshr miss ratio for demand accesses (Ratio)
system.cpu.dcache.demandMshrMissRate::total     0.003204                       # mshr miss ratio for demand accesses (Ratio)
system.cpu.dcache.overallMshrMissRate::cpu.data     0.003204                       # mshr miss ratio for overall accesses (Ratio)
system.cpu.dcache.overallMshrMissRate::total     0.003204                       # mshr miss ratio for overall accesses (Ratio)
system.cpu.dcache.demandAvgMshrMissLatency::cpu.data 75188.891900                       # average overall mshr miss latency ((Tick/Count))
system.cpu.dcache.demandAvgMshrMissLatency::total 75188.891900                       # average overall mshr miss latency ((Tick/Count))
system.cpu.dcache.overallAvgMshrMissLatency::cpu.data 75188.891900                       # average overall mshr miss latency ((Tick/Count))
system.cpu.dcache.overallAvgMshrMissLatency::total 75188.891900                       # average overall mshr miss latency ((Tick/Count))
system.cpu.dcache.replacements                   6537                       # number of replacements (Count)
system.cpu.dcache.LoadLockedReq.hits::cpu.data           44                       # number of LoadLockedReq hits (Count)
system.cpu.dcache.LoadLockedReq.hits::total           44                       # number of LoadLockedReq hits (Count)
system.cpu.dcache.LoadLockedReq.misses::cpu.data            3                       # number of LoadLockedReq misses (Count)
system.cpu.dcache.LoadLockedReq.misses::total            3                       # number of LoadLockedReq misses (Count)
system.cpu.dcache.LoadLockedReq.missLatency::cpu.data       130000                       # number of LoadLockedReq miss ticks (Tick)
system.cpu.dcache.LoadLockedReq.missLatency::total       130000                       # number of LoadLockedReq miss ticks (Tick)
system.cpu.dcache.LoadLockedReq.accesses::cpu.data           47                       # number of LoadLockedReq accesses(hits+misses) (Count)
system.cpu.dcache.LoadLockedReq.accesses::total           47                       # number of LoadLockedReq accesses(hits+misses) (Count)
system.cpu.dcache.LoadLockedReq.missRate::cpu.data     0.063830                       # miss rate for LoadLockedReq accesses (Ratio)
system.cpu.dcache.LoadLockedReq.missRate::total     0.063830                       # miss rate for LoadLockedReq accesses (Ratio)
system.cpu.dcache.LoadLockedReq.avgMissLatency::cpu.data 43333.333333                       # average LoadLockedReq miss latency ((Tick/Count))
system.cpu.dcache.LoadLockedReq.avgMissLatency::total 43333.333333                       # average LoadLockedReq miss latency ((Tick/Count))
system.cpu.dcache.LoadLockedReq.mshrHits::cpu.data            3                       # number of LoadLockedReq MSHR hits (Count)
system.cpu.dcache.LoadLockedReq.mshrHits::total            3                       # number of LoadLockedReq MSHR hits (Count)
system.cpu.dcache.ReadReq.hits::cpu.data      1099086                       # number of ReadReq hits (Count)
system.cpu.dcache.ReadReq.hits::total         1099086                       # number of ReadReq hits (Count)
system.cpu.dcache.ReadReq.misses::cpu.data          183                       # number of ReadReq misses (Count)
system.cpu.dcache.ReadReq.misses::total           183                       # number of ReadReq misses (Count)
system.cpu.dcache.ReadReq.missLatency::cpu.data     10989500                       # number of ReadReq miss ticks (Tick)
system.cpu.dcache.ReadReq.missLatency::total     10989500                       # number of ReadReq miss ticks (Tick)
system.cpu.dcache.ReadReq.accesses::cpu.data      1099269                       # number of ReadReq accesses(hits+misses) (Count)
system.cpu.dcache.ReadReq.accesses::total      1099269                       # number of ReadReq accesses(hits+misses) (Count)
system.cpu.dcache.ReadReq.missRate::cpu.data     0.000166                       # miss rate for ReadReq accesses (Ratio)
system.cpu.dcache.ReadReq.missRate::total     0.000166                       # miss rate for ReadReq accesses (Ratio)
system.cpu.dcache.ReadReq.avgMissLatency::cpu.data 60051.912568                       # average ReadReq miss latency ((Tick/Count))
system.cpu.dcache.ReadReq.avgMissLatency::total 60051.912568                       # average ReadReq miss latency ((Tick/Count))
system.cpu.dcache.ReadReq.mshrHits::cpu.data           80                       # number of ReadReq MSHR hits (Count)
system.cpu.dcache.ReadReq.mshrHits::total           80                       # number of ReadReq MSHR hits (Count)
system.cpu.dcache.ReadReq.mshrMisses::cpu.data          103                       # number of ReadReq MSHR misses (Count)
system.cpu.dcache.ReadReq.mshrMisses::total          103                       # number of ReadReq MSHR misses (Count)
system.cpu.dcache.ReadReq.mshrMissLatency::cpu.data      6632500                       # number of ReadReq MSHR miss ticks (Tick)
system.cpu.dcache.ReadReq.mshrMissLatency::total      6632500                       # number of ReadReq MSHR miss ticks (Tick)
system.cpu.dcache.ReadReq.mshrMissRate::cpu.data     0.000094                       # mshr miss rate for ReadReq accesses (Ratio)
system.cpu.dcache.ReadReq.mshrMissRate::total     0.000094                       # mshr miss rate for ReadReq accesses (Ratio)
system.cpu.dcache.ReadReq.avgMshrMissLatency::cpu.data 64393.203883                       # average ReadReq mshr miss latency ((Tick/Count))
system.cpu.dcache.ReadReq.avgMshrMissLatency::total 64393.203883                       # average ReadReq mshr miss latency ((Tick/Count))
system.cpu.dcache.StoreCondReq.hits::cpu.data           41                       # number of StoreCondReq hits (Count)
system.cpu.dcache.StoreCondReq.hits::total           41                       # number of StoreCondReq hits (Count)
system.cpu.dcache.StoreCondReq.accesses::cpu.data           41                       # number of StoreCondReq accesses(hits+misses) (Count)
system.cpu.dcache.StoreCondReq.accesses::total           41                       # number of StoreCondReq accesses(hits+misses) (Count)
system.cpu.dcache.WriteReq.hits::cpu.data      1075314                       # number of WriteReq hits (Count)
system.cpu.dcache.WriteReq.hits::total        1075314                       # number of WriteReq hits (Count)
system.cpu.dcache.WriteReq.misses::cpu.data        25670                       # number of WriteReq misses (Count)
system.cpu.dcache.WriteReq.misses::total        25670                       # number of WriteReq misses (Count)
system.cpu.dcache.WriteReq.missLatency::cpu.data   1415780498                       # number of WriteReq miss ticks (Tick)
system.cpu.dcache.WriteReq.missLatency::total   1415780498                       # number of WriteReq miss ticks (Tick)
system.cpu.dcache.WriteReq.accesses::cpu.data      1100984                       # number of WriteReq accesses(hits+misses) (Count)
system.cpu.dcache.WriteReq.accesses::total      1100984                       # number of WriteReq accesses(hits+misses) (Count)
system.cpu.dcache.WriteReq.missRate::cpu.data     0.023316                       # miss rate for WriteReq accesses (Ratio)
system.cpu.dcache.WriteReq.missRate::total     0.023316                       # miss rate for WriteReq accesses (Ratio)
system.cpu.dcache.WriteReq.avgMissLatency::cpu.data 55153.116400                       # average WriteReq miss latency ((Tick/Count))
system.cpu.dcache.WriteReq.avgMissLatency::total 55153.116400                       # average WriteReq miss latency ((Tick/Count))
system.cpu.dcache.WriteReq.mshrHits::cpu.data        18724                       # number of WriteReq MSHR hits (Count)
system.cpu.dcache.WriteReq.mshrHits::total        18724                       # number of WriteReq MSHR hits (Count)
system.cpu.dcache.WriteReq.mshrMisses::cpu.data         6946                       # number of WriteReq MSHR misses (Count)
system.cpu.dcache.WriteReq.mshrMisses::total         6946                       # number of WriteReq MSHR misses (Count)
system.cpu.dcache.WriteReq.mshrMissLatency::cpu.data    523373999                       # number of WriteReq MSHR miss ticks (Tick)
system.cpu.dcache.WriteReq.mshrMissLatency::total    523373999                       # number of WriteReq MSHR miss ticks (Tick)
system.cpu.dcache.WriteReq.mshrMissRate::cpu.data     0.006309                       # mshr miss rate for WriteReq accesses (Ratio)
system.cpu.dcache.WriteReq.mshrMissRate::total     0.006309                       # mshr miss rate for WriteReq accesses (Ratio)
system.cpu.dcache.WriteReq.avgMshrMissLatency::cpu.data 75348.977685                       # average WriteReq mshr miss latency ((Tick/Count))
system.cpu.dcache.WriteReq.avgMshrMissLatency::total 75348.977685                       # average WriteReq mshr miss latency ((Tick/Count))
system.cpu.dcache.power_state.pwrStateResidencyTicks::UNDEFINED   3139469000                       # Cumulative time (in ticks) in various power states (Tick)
system.cpu.dcache.tags.tagsInUse           496.434480                       # Average ticks per tags in use ((Tick/Count))
system.cpu.dcache.tags.totalRefs              2181534                       # Total number of references to valid blocks. (Count)
system.cpu.dcache.tags.sampledRefs               7049                       # Sample count of references to valid blocks. (Count)
system.cpu.dcache.tags.avgRefs             309.481345                       # Average number of references to valid blocks. ((Count/Count))
system.cpu.dcache.tags.warmupTick              148500                       # The tick when the warmup percentage was hit. (Tick)
system.cpu.dcache.tags.occupancies::cpu.data   496.434480                       # Average occupied blocks per tick, per requestor ((Count/Tick))
system.cpu.dcache.tags.avgOccs::cpu.data     0.969599                       # Average percentage of cache occupancy ((Ratio/Tick))
system.cpu.dcache.tags.avgOccs::total        0.969599                       # Average percentage of cache occupancy ((Ratio/Tick))
system.cpu.dcache.tags.occupanciesTaskId::1024          512                       # Occupied blocks per task id (Count)
system.cpu.dcache.tags.ageTaskId_1024::0           22                       # Occupied blocks per task id, per block age (Count)
system.cpu.dcache.tags.ageTaskId_1024::1          202                       # Occupied blocks per task id, per block age (Count)
system.cpu.dcache.tags.ageTaskId_1024::2          286                       # Occupied blocks per task id, per block age (Count)
system.cpu.dcache.tags.ageTaskId_1024::3            2                       # Occupied blocks per task id, per block age (Count)
system.cpu.dcache.tags.ratioOccsTaskId::1024            1                       # Ratio of occupied blocks and all blocks, per task id (Ratio)
system.cpu.dcache.tags.tagAccesses            4407731                       # Number of tag accesses (Count)
system.cpu.dcache.tags.dataAccesses           4407731                       # Number of data accesses (Count)
system.cpu.dcache.tags.power_state.pwrStateResidencyTicks::UNDEFINED   3139469000                       # Cumulative time (in ticks) in various power states (Tick)
system.cpu.decode.idleCycles                  2362045                       # Number of cycles decode is idle (Cycle)
system.cpu.decode.blockedCycles                622439                       # Number of cycles decode is blocked (Cycle)
system.cpu.decode.runCycles                   3007298                       # Number of cycles decode is running (Cycle)
system.cpu.decode.unblockCycles                115144                       # Number of cycles decode is unblocking (Cycle)
system.cpu.decode.squashCycles                 152875                       # Number of cycles decode is squashing (Cycle)
system.cpu.decode.branchResolved              1211836                       # Number of times decode resolved a branch (Count)
system.cpu.decode.branchMispred                   185                       # Number of times decode detected a branch misprediction (Count)
system.cpu.decode.decodedInsts               17150125                       # Number of instructions handled by decode (Count)
system.cpu.decode.squashedInsts                   561                       # Number of squashed instructions handled by decode (Count)
system.cpu.fetch.icacheStallCycles            2588477                       # Number of cycles fetch is stalled on an Icache miss (Cycle)
system.cpu.fetch.insts                       14976637                       # Number of instructions fetch has processed (Count)
system.cpu.fetch.branches                     2327132                       # Number of branches that fetch encountered (Count)
system.cpu.fetch.predictedBranches            1739619                       # Number of branches that fetch has predicted taken (Count)
system.cpu.fetch.cycles                       3518095                       # Number of cycles fetch has run and was not squashing or blocked (Cycle)
system.cpu.fetch.squashCycles                  306100                       # Number of cycles fetch has spent squashing (Cycle)
system.cpu.fetch.miscStallCycles                   97                       # Number of cycles fetch has spent waiting on interrupts, or bad addresses, or out of MSHRs (Cycle)
system.cpu.fetch.pendingTrapStallCycles             9                       # Number of stall cycles due to pending traps (Cycle)
system.cpu.fetch.icacheWaitRetryStallCycles           73                       # Number of stall cycles due to full MSHR (Cycle)
system.cpu.fetch.cacheLines                   2502169                       # Number of cache lines fetched (Count)
system.cpu.fetch.icacheSquashes                 72156                       # Number of outstanding Icache misses that were squashed (Count)
system.cpu.fetch.nisnDist::samples            6259801                       # Number of instructions fetched each cycle (Total) (Count)
system.cpu.fetch.nisnDist::mean              2.813470                       # Number of instructions fetched each cycle (Total) (Count)
system.cpu.fetch.nisnDist::stdev             3.194965                       # Number of instructions fetched each cycle (Total) (Count)
system.cpu.fetch.nisnDist::underflows               0      0.00%      0.00% # Number of instructions fetched each cycle (Total) (Count)
system.cpu.fetch.nisnDist::0                  2934383     46.88%     46.88% # Number of instructions fetched each cycle (Total) (Count)
system.cpu.fetch.nisnDist::1                   207243      3.31%     50.19% # Number of instructions fetched each cycle (Total) (Count)
system.cpu.fetch.nisnDist::2                   279466      4.46%     54.65% # Number of instructions fetched each cycle (Total) (Count)
system.cpu.fetch.nisnDist::3                   635952     10.16%     64.81% # Number of instructions fetched each cycle (Total) (Count)
system.cpu.fetch.nisnDist::4                   337689      5.39%     70.21% # Number of instructions fetched each cycle (Total) (Count)
system.cpu.fetch.nisnDist::5                   197219      3.15%     73.36% # Number of instructions fetched each cycle (Total) (Count)
system.cpu.fetch.nisnDist::6                   226575      3.62%     76.98% # Number of instructions fetched each cycle (Total) (Count)
system.cpu.fetch.nisnDist::7                   288764      4.61%     81.59% # Number of instructions fetched each cycle (Total) (Count)
system.cpu.fetch.nisnDist::8                  1152510     18.41%    100.00% # Number of instructions fetched each cycle (Total) (Count)
system.cpu.fetch.nisnDist::overflows                0      0.00%    100.00% # Number of instructions fetched each cycle (Total) (Count)
system.cpu.fetch.nisnDist::min_value                0                       # Number of instructions fetched each cycle (Total) (Count)
system.cpu.fetch.nisnDist::max_value                8                       # Number of instructions fetched each cycle (Total) (Count)
system.cpu.fetch.nisnDist::total              6259801                       # Number of instructions fetched each cycle (Total) (Count)
system.cpu.fetch.branchRate                  0.370625                       # Number of branch fetches per cycle (Ratio)
system.cpu.fetch.rate                        2.385218                       # Number of inst fetches per cycle ((Count/Cycle))
system.cpu.icache.demandHits::cpu.inst        2501737                       # number of demand (read+write) hits (Count)
system.cpu.icache.demandHits::total           2501737                       # number of demand (read+write) hits (Count)
system.cpu.icache.overallHits::cpu.inst       2501737                       # number of overall hits (Count)
system.cpu.icache.overallHits::total          2501737                       # number of overall hits (Count)
system.cpu.icache.demandMisses::cpu.inst          431                       # number of demand (read+write) misses (Count)
system.cpu.icache.demandMisses::total             431                       # number of demand (read+write) misses (Count)
system.cpu.icache.overallMisses::cpu.inst          431                       # number of overall misses (Count)
system.cpu.icache.overallMisses::total            431                       # number of overall misses (Count)
system.cpu.icache.demandMissLatency::cpu.inst     28369999                       # number of demand (read+write) miss ticks (Tick)
system.cpu.icache.demandMissLatency::total     28369999                       # number of demand (read+write) miss ticks (Tick)
system.cpu.icache.overallMissLatency::cpu.inst     28369999                       # number of overall miss ticks (Tick)
system.cpu.icache.overallMissLatency::total     28369999                       # number of overall miss ticks (Tick)
system.cpu.icache.demandAccesses::cpu.inst      2502168                       # number of demand (read+write) accesses (Count)
system.cpu.icache.demandAccesses::total       2502168                       # number of demand (read+write) accesses (Count)
system.cpu.icache.overallAccesses::cpu.inst      2502168                       # number of overall (read+write) accesses (Count)
system.cpu.icache.overallAccesses::total      2502168                       # number of overall (read+write) accesses (Count)
system.cpu.icache.demandMissRate::cpu.inst     0.000172                       # miss rate for demand accesses (Ratio)
system.cpu.icache.demandMissRate::total      0.000172                       # miss rate for demand accesses (Ratio)
system.cpu.icache.overallMissRate::cpu.inst     0.000172                       # miss rate for overall accesses (Ratio)
system.cpu.icache.overallMissRate::total     0.000172                       # miss rate for overall accesses (Ratio)
system.cpu.icache.demandAvgMissLatency::cpu.inst 65823.663573                       # average overall miss latency in ticks ((Tick/Count))
system.cpu.icache.demandAvgMissLatency::total 65823.663573                       # average overall miss latency in ticks ((Tick/Count))
system.cpu.icache.overallAvgMissLatency::cpu.inst 65823.663573                       # average overall miss latency ((Tick/Count))
system.cpu.icache.overallAvgMissLatency::total 65823.663573                       # average overall miss latency ((Tick/Count))
system.cpu.icache.blockedCycles::no_mshrs          515                       # number of cycles access was blocked (Cycle)
system.cpu.icache.blockedCycles::no_targets            0                       # number of cycles access was blocked (Cycle)
system.cpu.icache.blockedCauses::no_mshrs           12                       # number of times access was blocked (Count)
system.cpu.icache.blockedCauses::no_targets            0                       # number of times access was blocked (Count)
system.cpu.icache.avgBlocked::no_mshrs      42.916667                       # average number of cycles each access was blocked ((Cycle/Count))
system.cpu.icache.avgBlocked::no_targets          nan                       # average number of cycles each access was blocked ((Cycle/Count))
system.cpu.icache.demandMshrHits::cpu.inst           90                       # number of demand (read+write) MSHR hits (Count)
system.cpu.icache.demandMshrHits::total            90                       # number of demand (read+write) MSHR hits (Count)
system.cpu.icache.overallMshrHits::cpu.inst           90                       # number of overall MSHR hits (Count)
system.cpu.icache.overallMshrHits::total           90                       # number of overall MSHR hits (Count)
system.cpu.icache.demandMshrMisses::cpu.inst          341                       # number of demand (read+write) MSHR misses (Count)
system.cpu.icache.demandMshrMisses::total          341                       # number of demand (read+write) MSHR misses (Count)
system.cpu.icache.overallMshrMisses::cpu.inst          341                       # number of overall MSHR misses (Count)
system.cpu.icache.overallMshrMisses::total          341                       # number of overall MSHR misses (Count)
system.cpu.icache.demandMshrMissLatency::cpu.inst     23073999                       # number of demand (read+write) MSHR miss ticks (Tick)
system.cpu.icache.demandMshrMissLatency::total     23073999                       # number of demand (read+write) MSHR miss ticks (Tick)
system.cpu.icache.overallMshrMissLatency::cpu.inst     23073999                       # number of overall MSHR miss ticks (Tick)
system.cpu.icache.overallMshrMissLatency::total     23073999                       # number of overall MSHR miss ticks (Tick)
system.cpu.icache.demandMshrMissRate::cpu.inst     0.000136                       # mshr miss ratio for demand accesses (Ratio)
system.cpu.icache.demandMshrMissRate::total     0.000136                       # mshr miss ratio for demand accesses (Ratio)
system.cpu.icache.overallMshrMissRate::cpu.inst     0.000136                       # mshr miss ratio for overall accesses (Ratio)
system.cpu.icache.overallMshrMissRate::total     0.000136                       # mshr miss ratio for overall accesses (Ratio)
system.cpu.icache.demandAvgMshrMissLatency::cpu.inst 67665.686217                       # average overall mshr miss latency ((Tick/Count))
system.cpu.icache.demandAvgMshrMissLatency::total 67665.686217                       # average overall mshr miss latency ((Tick/Count))
system.cpu.icache.overallAvgMshrMissLatency::cpu.inst 67665.686217                       # average overall mshr miss latency ((Tick/Count))
system.cpu.icache.overallAvgMshrMissLatency::total 67665.686217                       # average overall mshr miss latency ((Tick/Count))
system.cpu.icache.replacements                     53                       # number of replacements (Count)
system.cpu.icache.ReadReq.hits::cpu.inst      2501737                       # number of ReadReq hits (Count)
system.cpu.icache.ReadReq.hits::total         2501737                       # number of ReadReq hits (Count)
system.cpu.icache.ReadReq.misses::cpu.inst          431                       # number of ReadReq misses (Count)
system.cpu.icache.ReadReq.misses::total           431                       # number of ReadReq misses (Count)
system.cpu.icache.ReadReq.missLatency::cpu.inst     28369999                       # number of ReadReq miss ticks (Tick)
system.cpu.icache.ReadReq.missLatency::total     28369999                       # number of ReadReq miss ticks (Tick)
system.cpu.icache.ReadReq.accesses::cpu.inst      2502168                       # number of ReadReq accesses(hits+misses) (Count)
system.cpu.icache.ReadReq.accesses::total      2502168                       # number of ReadReq accesses(hits+misses) (Count)
system.cpu.icache.ReadReq.missRate::cpu.inst     0.000172                       # miss rate for ReadReq accesses (Ratio)
system.cpu.icache.ReadReq.missRate::total     0.000172                       # miss rate for ReadReq accesses (Ratio)
system.cpu.icache.ReadReq.avgMissLatency::cpu.inst 65823.663573                       # average ReadReq miss latency ((Tick/Count))
system.cpu.icache.ReadReq.avgMissLatency::total 65823.663573                       # average ReadReq miss latency ((Tick/Count))
system.cpu.icache.ReadReq.mshrHits::cpu.inst           90                       # number of ReadReq MSHR hits (Count)
system.cpu.icache.ReadReq.mshrHits::total           90                       # number of ReadReq MSHR hits (Count)
system.cpu.icache.ReadReq.mshrMisses::cpu.inst          341                       # number of ReadReq MSHR misses (Count)
system.cpu.icache.ReadReq.mshrMisses::total          341                       # number of ReadReq MSHR misses (Count)
system.cpu.icache.ReadReq.mshrMissLatency::cpu.inst     23073999                       # number of ReadReq MSHR miss ticks (Tick)
system.cpu.icache.ReadReq.mshrMissLatency::total     23073999                       # number of ReadReq MSHR miss ticks (Tick)
system.cpu.icache.ReadReq.mshrMissRate::cpu.inst     0.000136                       # mshr miss rate for ReadReq accesses (Ratio)
system.cpu.icache.ReadReq.mshrMissRate::total     0.000136                       # mshr miss rate for ReadReq accesses (Ratio)
system.cpu.icache.ReadReq.avgMshrMissLatency::cpu.inst 67665.686217                       # average ReadReq mshr miss latency ((Tick/Count))
system.cpu.icache.ReadReq.avgMshrMissLatency::total 67665.686217                       # average ReadReq mshr miss latency ((Tick/Count))
system.cpu.icache.power_state.pwrStateResidencyTicks::UNDEFINED   3139469000                       # Cumulative time (in ticks) in various power states (Tick)
system.cpu.icache.tags.tagsInUse           287.064860                       # Average ticks per tags in use ((Tick/Count))
system.cpu.icache.tags.totalRefs              2502078                       # Total number of references to valid blocks. (Count)
system.cpu.icache.tags.sampledRefs                341                       # Sample count of references to valid blocks. (Count)
system.cpu.icache.tags.avgRefs            7337.472141                       # Average number of references to valid blocks. ((Count/Count))
system.cpu.icache.tags.warmupTick               81500                       # The tick when the warmup percentage was hit. (Tick)
system.cpu.icache.tags.occupancies::cpu.inst   287.064860                       # Average occupied blocks per tick, per requestor ((Count/Tick))
system.cpu.icache.tags.avgOccs::cpu.inst     0.560674                       # Average percentage of cache occupancy ((Ratio/Tick))
system.cpu.icache.tags.avgOccs::total        0.560674                       # Average percentage of cache occupancy ((Ratio/Tick))
system.cpu.icache.tags.occupanciesTaskId::1024          288                       # Occupied blocks per task id (Count)
system.cpu.icache.tags.ageTaskId_1024::3          288                       # Occupied blocks per task id, per block age (Count)
system.cpu.icache.tags.ratioOccsTaskId::1024     0.562500                       # Ratio of occupied blocks and all blocks, per task id (Ratio)
system.cpu.icache.tags.tagAccesses            5004677                       # Number of tag accesses (Count)
system.cpu.icache.tags.dataAccesses           5004677                       # Number of data accesses (Count)
system.cpu.icache.tags.power_state.pwrStateResidencyTicks::UNDEFINED   3139469000                       # Cumulative time (in ticks) in various power states (Tick)
system.cpu.iew.idleCycles                           0                       # Number of cycles IEW is idle (Cycle)
system.cpu.iew.squashCycles                    152875                       # Number of cycles IEW is squashing (Cycle)
system.cpu.iew.blockCycles                     392428                       # Number of cycles IEW is blocking (Cycle)
system.cpu.iew.unblockCycles                        4                       # Number of cycles IEW is unblocking (Cycle)
system.cpu.iew.dispatchedInsts               15749783                       # Number of instructions dispatched to IQ (Count)
system.cpu.iew.dispSquashedInsts                 1905                       # Number of squashed instructions skipped by dispatch (Count)
system.cpu.iew.dispLoadInsts                  1360414                       # Number of dispatched load instructions (Count)
system.cpu.iew.dispStoreInsts                 1339890                       # Number of dispatched store instructions (Count)
system.cpu.iew.dispNonSpecInsts                    72                       # Number of dispatched non-speculative instructions (Count)
system.cpu.iew.iqFullEvents                         1                       # Number of times the IQ has become full, causing a stall (Count)
system.cpu.iew.lsqFullEvents                        0                       # Number of times the LSQ has become full, causing a stall (Count)
system.cpu.iew.memOrderViolationEvents            189                       # Number of memory order violations (Count)
system.cpu.iew.predictedTakenIncorrect         142446                       # Number of branches that were predicted taken incorrectly (Count)
system.cpu.iew.predictedNotTakenIncorrect        18192                       # Number of branches that were predicted not taken incorrectly (Count)
system.cpu.iew.branchMispredicts               160638                       # Number of branch mispredicts detected at execute (Count)
system.cpu.iew.instsToCommit                 13186417                       # Cumulative count of insts sent to commit (Count)
system.cpu.iew.writebackCount                13176133                       # Cumulative count of insts written-back (Count)
system.cpu.iew.producerInst                   8602098                       # Number of instructions producing a value (Count)
system.cpu.iew.consumerInst                  24834551                       # Number of instructions consuming a value (Count)
system.cpu.iew.wbRate                        2.098465                       # Insts written-back per cycle ((Count/Cycle))
system.cpu.iew.wbFanout                      0.346376                       # Average fanout of values written-back ((Count/Count))
system.cpu.lsq0.forwLoads                      103663                       # Number of loads that had data forwarded from stores (Count)
system.cpu.lsq0.squashedLoads                  313237                       # Number of loads squashed (Count)
system.cpu.lsq0.ignoredResponses                   80                       # Number of memory responses ignored because the instruction is squashed (Count)
system.cpu.lsq0.memOrderViolation                 189                       # Number of memory ordering violations (Count)
system.cpu.lsq0.squashedStores                 238848                       # Number of stores squashed (Count)
system.cpu.lsq0.rescheduledLoads               186975                       # Number of loads that were rescheduled (Count)
system.cpu.lsq0.blockedByCache                      7                       # Number of times an access to memory failed due to the cache being blocked (Count)
system.cpu.lsq0.loadToUse::samples            1047175                       # Distribution of cycle latency between the first time a load is issued and its completion (Unspecified)
system.cpu.lsq0.loadToUse::mean              3.485701                       # Distribution of cycle latency between the first time a load is issued and its completion (Unspecified)
system.cpu.lsq0.loadToUse::stdev             1.774894                       # Distribution of cycle latency between the first time a load is issued and its completion (Unspecified)
system.cpu.lsq0.loadToUse::0-9                1046003     99.89%     99.89% # Distribution of cycle latency between the first time a load is issued and its completion (Unspecified)
system.cpu.lsq0.loadToUse::10-19                 1053      0.10%     99.99% # Distribution of cycle latency between the first time a load is issued and its completion (Unspecified)
system.cpu.lsq0.loadToUse::20-29                    9      0.00%     99.99% # Distribution of cycle latency between the first time a load is issued and its completion (Unspecified)
system.cpu.lsq0.loadToUse::30-39                    1      0.00%     99.99% # Distribution of cycle latency between the first time a load is issued and its completion (Unspecified)
system.cpu.lsq0.loadToUse::40-49                    1      0.00%     99.99% # Distribution of cycle latency between the first time a load is issued and its completion (Unspecified)
system.cpu.lsq0.loadToUse::50-59                    1      0.00%     99.99% # Distribution of cycle latency between the first time a load is issued and its completion (Unspecified)
system.cpu.lsq0.loadToUse::80-89                    1      0.00%     99.99% # Distribution of cycle latency between the first time a load is issued and its completion (Unspecified)
system.cpu.lsq0.loadToUse::90-99                    1      0.00%     99.99% # Distribution of cycle latency between the first time a load is issued and its completion (Unspecified)
system.cpu.lsq0.loadToUse::100-109                  4      0.00%     99.99% # Distribution of cycle latency between the first time a load is issued and its completion (Unspecified)
system.cpu.lsq0.loadToUse::110-119                  4      0.00%     99.99% # Distribution of cycle latency between the first time a load is issued and its completion (Unspecified)
system.cpu.lsq0.loadToUse::120-129                 11      0.00%     99.99% # Distribution of cycle latency between the first time a load is issued and its completion (Unspecified)
system.cpu.lsq0.loadToUse::130-139                 40      0.00%    100.00% # Distribution of cycle latency between the first time a load is issued and its completion (Unspecified)
system.cpu.lsq0.loadToUse::140-149                 14      0.00%    100.00% # Distribution of cycle latency between the first time a load is issued and its completion (Unspecified)
system.cpu.lsq0.loadToUse::150-159                  3      0.00%    100.00% # Distribution of cycle latency between the first time a load is issued and its completion (Unspecified)
system.cpu.lsq0.loadToUse::160-169                 16      0.00%    100.00% # Distribution of cycle latency between the first time a load is issued and its completion (Unspecified)
system.cpu.lsq0.loadToUse::170-179                  3      0.00%    100.00% # Distribution of cycle latency between the first time a load is issued and its completion (Unspecified)
system.cpu.lsq0.loadToUse::180-189                  5      0.00%    100.00% # Distribution of cycle latency between the first time a load is issued and its completion (Unspecified)
system.cpu.lsq0.loadToUse::190-199                  5      0.00%    100.00% # Distribution of cycle latency between the first time a load is issued and its completion (Unspecified)
system.cpu.lsq0.loadToUse::min_value                1                       # Distribution of cycle latency between the first time a load is issued and its completion (Unspecified)
system.cpu.lsq0.loadToUse::max_value              199                       # Distribution of cycle latency between the first time a load is issued and its completion (Unspecified)
system.cpu.lsq0.loadToUse::total              1047175                       # Distribution of cycle latency between the first time a load is issued and its completion (Unspecified)
system.cpu.mmu.alignFaults                          0                       # Number of MMU faults due to alignment restrictions (Count)
[...]
system.mem_ctrl.dram.perBankRdBursts::6           256                       # Per bank write bursts (Count)
system.mem_ctrl.dram.perBankRdBursts::7           258                       # Per bank write bursts (Count)
system.mem_ctrl.dram.perBankRdBursts::8           268                       # Per bank write bursts (Count)
system.mem_ctrl.dram.perBankRdBursts::9           321                       # Per bank write bursts (Count)
system.mem_ctrl.dram.perBankRdBursts::10          282                       # Per bank write bursts (Count)
system.mem_ctrl.dram.perBankRdBursts::11          274                       # Per bank write bursts (Count)
system.mem_ctrl.dram.perBankRdBursts::12          261                       # Per bank write bursts (Count)
system.mem_ctrl.dram.perBankRdBursts::13          287                       # Per bank write bursts (Count)
system.mem_ctrl.dram.perBankRdBursts::14          270                       # Per bank write bursts (Count)
system.mem_ctrl.dram.perBankRdBursts::15          262                       # Per bank write bursts (Count)
system.mem_ctrl.dram.perBankRdBursts::16          256                       # Per bank write bursts (Count)
system.mem_ctrl.dram.perBankRdBursts::17          256                       # Per bank write bursts (Count)
system.mem_ctrl.dram.perBankRdBursts::18          260                       # Per bank write bursts (Count)
system.mem_ctrl.dram.perBankRdBursts::19          257                       # Per bank write bursts (Count)
system.mem_ctrl.dram.perBankRdBursts::20          263                       # Per bank write bursts (Count)
system.mem_ctrl.dram.perBankRdBursts::21          256                       # Per bank write bursts (Count)
system.mem_ctrl.dram.perBankRdBursts::22          256                       # Per bank write bursts (Count)
system.mem_ctrl.dram.perBankRdBursts::23          256                       # Per bank write bursts (Count)
system.mem_ctrl.dram.perBankRdBursts::24          256                       # Per bank write bursts (Count)
system.mem_ctrl.dram.perBankRdBursts::25          174                       # Per bank write bursts (Count)
system.mem_ctrl.dram.perBankRdBursts::26          131                       # Per bank write bursts (Count)
system.mem_ctrl.dram.perBankRdBursts::27          129                       # Per bank write bursts (Count)
system.mem_ctrl.dram.perBankRdBursts::28          128                       # Per bank write bursts (Count)
system.mem_ctrl.dram.perBankRdBursts::29          164                       # Per bank write bursts (Count)
system.mem_ctrl.dram.perBankRdBursts::30          142                       # Per bank write bursts (Count)
system.mem_ctrl.dram.perBankRdBursts::31          151                       # Per bank write bursts (Count)
system.mem_ctrl.dram.perBankWrBursts::0            10                       # Per bank write bursts (Count)
system.mem_ctrl.dram.perBankWrBursts::1             2                       # Per bank write bursts (Count)
system.mem_ctrl.dram.perBankWrBursts::2            65                       # Per bank write bursts (Count)
system.mem_ctrl.dram.perBankWrBursts::3             2                       # Per bank write bursts (Count)
system.mem_ctrl.dram.perBankWrBursts::4           128                       # Per bank write bursts (Count)
system.mem_ctrl.dram.perBankWrBursts::5           128                       # Per bank write bursts (Count)
system.mem_ctrl.dram.perBankWrBursts::6           128                       # Per bank write bursts (Count)
system.mem_ctrl.dram.perBankWrBursts::7           128                       # Per bank write bursts (Count)
system.mem_ctrl.dram.perBankWrBursts::8           128                       # Per bank write bursts (Count)
system.mem_ctrl.dram.perBankWrBursts::9           128                       # Per bank write bursts (Count)
system.mem_ctrl.dram.perBankWrBursts::10          128                       # Per bank write bursts (Count)
system.mem_ctrl.dram.perBankWrBursts::11          128                       # Per bank write bursts (Count)
system.mem_ctrl.dram.perBankWrBursts::12          128                       # Per bank write bursts (Count)
system.mem_ctrl.dram.perBankWrBursts::13          128                       # Per bank write bursts (Count)
system.mem_ctrl.dram.perBankWrBursts::14          128                       # Per bank write bursts (Count)
system.mem_ctrl.dram.perBankWrBursts::15          128                       # Per bank write bursts (Count)
system.mem_ctrl.dram.perBankWrBursts::16          128                       # Per bank write bursts (Count)
system.mem_ctrl.dram.perBankWrBursts::17          128                       # Per bank write bursts (Count)
system.mem_ctrl.dram.perBankWrBursts::18          128                       # Per bank write bursts (Count)
system.mem_ctrl.dram.perBankWrBursts::19          128                       # Per bank write bursts (Count)
system.mem_ctrl.dram.perBankWrBursts::20          128                       # Per bank write bursts (Count)
system.mem_ctrl.dram.perBankWrBursts::21          128                       # Per bank write bursts (Count)
system.mem_ctrl.dram.perBankWrBursts::22          128                       # Per bank write bursts (Count)
system.mem_ctrl.dram.perBankWrBursts::23          128                       # Per bank write bursts (Count)
system.mem_ctrl.dram.perBankWrBursts::24          101                       # Per bank write bursts (Count)
system.mem_ctrl.dram.perBankWrBursts::25           14                       # Per bank write bursts (Count)
system.mem_ctrl.dram.perBankWrBursts::26            0                       # Per bank write bursts (Count)
system.mem_ctrl.dram.perBankWrBursts::27            0                       # Per bank write bursts (Count)
system.mem_ctrl.dram.perBankWrBursts::28            0                       # Per bank write bursts (Count)
system.mem_ctrl.dram.perBankWrBursts::29           29                       # Per bank write bursts (Count)
system.mem_ctrl.dram.perBankWrBursts::30           13                       # Per bank write bursts (Count)
system.mem_ctrl.dram.perBankWrBursts::31           10                       # Per bank write bursts (Count)
system.mem_ctrl.dram.totQLat                 77868044                       # Total ticks spent queuing (Tick)
system.mem_ctrl.dram.totBusLat               24473540                       # Total ticks spent in databus transfers (Tick)
system.mem_ctrl.dram.totMemAccLat           206346784                       # Total ticks spent from burst creation until serviced by the DRAM (Tick)
system.mem_ctrl.dram.avgQLat                 10601.50                       # Average queueing delay per DRAM burst ((Tick/Count))
system.mem_ctrl.dram.avgBusLat                3332.00                       # Average bus latency per DRAM burst ((Tick/Count))
system.mem_ctrl.dram.avgMemAccLat            28093.50                       # Average memory access latency per DRAM burst ((Tick/Count))
system.mem_ctrl.dram.readRowHits                 6514                       # Number of row buffer hits during reads (Count)
system.mem_ctrl.dram.writeRowHits                2483                       # Number of row buffer hits during writes (Count)
system.mem_ctrl.dram.readRowHitRate             88.69                       # Row buffer hit rate for reads (Ratio)
system.mem_ctrl.dram.writeRowHitRate            88.49                       # Row buffer hit rate for writes (Ratio)
system.mem_ctrl.dram.bytesPerActivate::samples         1153                       # Bytes accessed per row activation (Byte)
system.mem_ctrl.dram.bytesPerActivate::mean   563.233304                       # Bytes accessed per row activation (Byte)
system.mem_ctrl.dram.bytesPerActivate::gmean   401.837570                       # Bytes accessed per row activation (Byte)
system.mem_ctrl.dram.bytesPerActivate::stdev   362.569201                       # Bytes accessed per row activation (Byte)
system.mem_ctrl.dram.bytesPerActivate::0-127          133     11.54%     11.54% # Bytes accessed per row activation (Byte)
system.mem_ctrl.dram.bytesPerActivate::128-255          192     16.65%     28.19% # Bytes accessed per row activation (Byte)
system.mem_ctrl.dram.bytesPerActivate::256-383           81      7.03%     35.21% # Bytes accessed per row activation (Byte)
system.mem_ctrl.dram.bytesPerActivate::384-511          140     12.14%     47.35% # Bytes accessed per row activation (Byte)
system.mem_ctrl.dram.bytesPerActivate::512-639           69      5.98%     53.34% # Bytes accessed per row activation (Byte)
system.mem_ctrl.dram.bytesPerActivate::640-767          127     11.01%     64.35% # Bytes accessed per row activation (Byte)
system.mem_ctrl.dram.bytesPerActivate::768-895           47      4.08%     68.43% # Bytes accessed per row activation (Byte)
system.mem_ctrl.dram.bytesPerActivate::896-1023           75      6.50%     74.93% # Bytes accessed per row activation (Byte)
system.mem_ctrl.dram.bytesPerActivate::1024-1151          289     25.07%    100.00% # Bytes accessed per row activation (Byte)
system.mem_ctrl.dram.bytesPerActivate::total         1153                       # Bytes accessed per row activation (Byte)
system.mem_ctrl.dram.bytesRead                 470080                       # Total bytes read (Byte)
system.mem_ctrl.dram.bytesWritten              179584                       # Total bytes written (Byte)
system.mem_ctrl.dram.avgRdBW               149.732327                       # Average DRAM read bandwidth in MiBytes/s ((Byte/Second))
system.mem_ctrl.dram.avgWrBW                57.202030                       # Average DRAM write bandwidth in MiBytes/s ((Byte/Second))
system.mem_ctrl.dram.peakBW                  19207.00                       # Theoretical peak bandwidth in MiByte/s ((Byte/Second))
system.mem_ctrl.dram.busUtil                     1.08                       # Data bus utilization in percentage (Ratio)
system.mem_ctrl.dram.busUtilRead                 0.78                       # Data bus utilization in percentage for reads (Ratio)
system.mem_ctrl.dram.busUtilWrite                0.30                       # Data bus utilization in percentage for writes (Ratio)
system.mem_ctrl.dram.pageHitRate                88.63                       # Row buffer hit rate, read and write combined (Ratio)
system.mem_ctrl.dram.power_state.pwrStateResidencyTicks::UNDEFINED   3139469000                       # Cumulative time (in ticks) in various power states (Tick)
system.mem_ctrl.dram.rank0.actEnergy     1967932.512000                       # Energy for activate commands per rank (pJ) (Joule)
system.mem_ctrl.dram.rank0.preEnergy     2616341.044800                       # Energy for precharge commands per rank (pJ) (Joule)
system.mem_ctrl.dram.rank0.readEnergy    16867330.368000                       # Energy for read commands per rank (pJ) (Joule)
system.mem_ctrl.dram.rank0.writeEnergy   6069971.040000                       # Energy for write commands per rank (pJ) (Joule)
system.mem_ctrl.dram.rank0.refreshEnergy 558307183.761603                       # Energy for refresh commands per rank (pJ) (Joule)
system.mem_ctrl.dram.rank0.actBackEnergy 1441580197.175999                       # Energy for active background per rank (pJ) (Joule)
system.mem_ctrl.dram.rank0.preBackEnergy 941790876.902406                       # Energy for precharge background per rank (pJ) (Joule)
system.mem_ctrl.dram.rank0.actPowerDownEnergy            0                       # Energy for active power-down per rank (pJ) (Joule)
system.mem_ctrl.dram.rank0.prePowerDownEnergy            0                       # Energy for precharge power-down per rank (pJ) (Joule)
system.mem_ctrl.dram.rank0.selfRefreshEnergy            0                       # Energy for self refresh per rank (pJ) (Joule)
system.mem_ctrl.dram.rank0.totalEnergy   2969199832.804805                       # Total energy per rank (pJ) (Joule)
system.mem_ctrl.dram.rank0.averagePower    945.764979                       # Core power per rank (mW) (Watt)
system.mem_ctrl.dram.rank0.totalIdleTime            0                       # Total Idle time Per DRAM Rank (Tick)
system.mem_ctrl.dram.rank0.pwrStateTime::IDLE   1432202492                       # Time in different power states (Tick)
system.mem_ctrl.dram.rank0.pwrStateTime::REF    141050000                       # Time in different power states (Tick)
system.mem_ctrl.dram.rank0.pwrStateTime::SREF            0                       # Time in different power states (Tick)
system.mem_ctrl.dram.rank0.pwrStateTime::PRE_PDN            0                       # Time in different power states (Tick)
system.mem_ctrl.dram.rank0.pwrStateTime::ACT   1566216508                       # Time in different power states (Tick)
system.mem_ctrl.dram.rank0.pwrStateTime::ACT_PDN            0                       # Time in different power states (Tick)
system.mem_ctrl.dram.rank1.actEnergy     1631107.296000                       # Energy for activate commands per rank (pJ) (Joule)
system.mem_ctrl.dram.rank1.preEnergy     2164389.897600                       # Energy for precharge commands per rank (pJ) (Joule)
system.mem_ctrl.dram.rank1.readEnergy    14028066.528000                       # Energy for read commands per rank (pJ) (Joule)
system.mem_ctrl.dram.rank1.writeEnergy   4476368.736000                       # Energy for write commands per rank (pJ) (Joule)
system.mem_ctrl.dram.rank1.refreshEnergy 558307183.761603                       # Energy for refresh commands per rank (pJ) (Joule)
system.mem_ctrl.dram.rank1.actBackEnergy 1335672501.206403                       # Energy for active background per rank (pJ) (Joule)
system.mem_ctrl.dram.rank1.preBackEnergy 1023166281.715206                       # Energy for precharge background per rank (pJ) (Joule)
system.mem_ctrl.dram.rank1.actPowerDownEnergy            0                       # Energy for active power-down per rank (pJ) (Joule)
system.mem_ctrl.dram.rank1.prePowerDownEnergy            0                       # Energy for precharge power-down per rank (pJ) (Joule)
system.mem_ctrl.dram.rank1.selfRefreshEnergy            0                       # Energy for self refresh per rank (pJ) (Joule)
system.mem_ctrl.dram.rank1.totalEnergy   2939445899.140805                       # Total energy per rank (pJ) (Joule)
system.mem_ctrl.dram.rank1.averagePower    936.287601                       # Core power per rank (mW) (Watt)
system.mem_ctrl.dram.rank1.totalIdleTime            0                       # Total Idle time Per DRAM Rank (Tick)
system.mem_ctrl.dram.rank1.pwrStateTime::IDLE   1557067524                       # Time in different power states (Tick)
system.mem_ctrl.dram.rank1.pwrStateTime::REF    141050000                       # Time in different power states (Tick)
system.mem_ctrl.dram.rank1.pwrStateTime::SREF            0                       # Time in different power states (Tick)
system.mem_ctrl.dram.rank1.pwrStateTime::PRE_PDN            0                       # Time in different power states (Tick)
system.mem_ctrl.dram.rank1.pwrStateTime::ACT   1441351476                       # Time in different power states (Tick)
system.mem_ctrl.dram.rank1.pwrStateTime::ACT_PDN            0                       # Time in different power states (Tick)
system.mem_ctrl.power_state.pwrStateResidencyTicks::UNDEFINED   3139469000                       # Cumulative time (in ticks) in various power states (Tick)
system.membus.transDist::ReadResp                 399                       # Transaction distribution (Count)
system.membus.transDist::WritebackDirty          2865                       # Transaction distribution (Count)
system.membus.transDist::CleanEvict                94                       # Transaction distribution (Count)
system.membus.transDist::ReadExReq               6946                       # Transaction distribution (Count)
system.membus.transDist::ReadExResp              6946                       # Transaction distribution (Count)
system.membus.transDist::ReadSharedReq            399                       # Transaction distribution (Count)
system.membus.pktCount_system.l2cache.mem_side_port::system.mem_ctrl.port        17649                       # Packet count per connected requestor and responder (Count)
system.membus.pktCount::total                   17649                       # Packet count per connected requestor and responder (Count)
system.membus.pktSize_system.l2cache.mem_side_port::system.mem_ctrl.port       653440                       # Cumulative packet size per connected requestor and responder (Byte)
system.membus.pktSize::total                   653440                       # Cumulative packet size per connected requestor and responder (Byte)
system.membus.snoops                                0                       # Total snoops (Count)
system.membus.snoopTraffic                          0                       # Total snoop traffic (Byte)
system.membus.snoopFanout::samples               7345                       # Request fanout histogram (Count)
system.membus.snoopFanout::mean                     0                       # Request fanout histogram (Count)
system.membus.snoopFanout::stdev                    0                       # Request fanout histogram (Count)
system.membus.snoopFanout::underflows               0      0.00%      0.00% # Request fanout histogram (Count)
system.membus.snoopFanout::0                     7345    100.00%    100.00% # Request fanout histogram (Count)
system.membus.snoopFanout::1                        0      0.00%    100.00% # Request fanout histogram (Count)
system.membus.snoopFanout::overflows                0      0.00%    100.00% # Request fanout histogram (Count)
system.membus.snoopFanout::min_value                0                       # Request fanout histogram (Count)
system.membus.snoopFanout::max_value                0                       # Request fanout histogram (Count)
system.membus.snoopFanout::total                 7345                       # Request fanout histogram (Count)
system.membus.power_state.pwrStateResidencyTicks::UNDEFINED   3139469000                       # Cumulative time (in ticks) in various power states (Tick)
system.membus.reqLayer0.occupancy            10882000                       # Layer occupancy (ticks) (Tick)
system.membus.reqLayer0.utilization               0.0                       # Layer utilization (Ratio)
system.membus.respLayer0.occupancy           18654216                       # Layer occupancy (ticks) (Tick)
system.membus.respLayer0.utilization              0.0                       # Layer utilization (Ratio)
system.membus.snoop_filter.totRequests          10304                       # Total number of requests made to the snoop filter. (Count)
system.membus.snoop_filter.hitSingleRequests         2959                       # Number of requests hitting in the snoop filter with a single holder of the requested data. (Count)
system.membus.snoop_filter.hitMultiRequests            0                       # Number of requests hitting in the snoop filter with multiple (>1) holders of the requested data. (Count)
system.membus.snoop_filter.totSnoops                0                       # Total number of snoops made to the snoop filter. (Count)
system.membus.snoop_filter.hitSingleSnoops            0                       # Number of snoops hitting in the snoop filter with a single holder of the requested data. (Count)
system.membus.snoop_filter.hitMultiSnoops            0                       # Number of snoops hitting in the snoop filter with multiple (>1) holders of the requested data. (Count)
system.workload.inst.arm                            0                       # number of arm instructions executed (Count)
system.workload.inst.quiesce                        0                       # number of quiesce instructions executed (Count)

---------- End Simulation Statistics   ----------
