
---------- Begin Simulation Statistics ----------
simSeconds                                   0.003143                       # Number of seconds simulated (Second)
simTicks                                   3142576000                       # Number of ticks simulated (Tick)
finalTick                                  3142576000                       # Number of ticks from beginning of simulation (restored from checkpoints and never reset) (Tick)
simFreq                                  1000000000000                       # The number of ticks per simulated second ((Tick/Second))
hostSeconds                                     24.62                       # Real time elapsed on the host (Second)
hostTickRate                                127635340                       # The number of ticks simulated per host second (ticks/s) ((Tick/Second))
hostMemory                                    2257796                       # Number of bytes of host memory used (Byte)
simInsts                                     10000000                       # Number of instructions simulated (Count)
simOps                                       11814314                       # Number of ops (including micro ops) simulated (Count)
hostInstRate                                   406147                       # Simulator instruction rate (inst/s) ((Count/Second))
hostOpRate                                     479835                       # Simulator op (including micro ops) rate (op/s) ((Count/Second))
system.clk_domain.clock                           500                       # Clock period in ticks (Tick)
system.clk_domain.voltage_domain.voltage            1                       # Voltage in Volts (Volt)
system.cpu.numCycles                          6285153                       # Number of cpu cycles simulated (Cycle)
system.cpu.numWorkItemsStarted                      0                       # Number of work items this cpu started (Count)
system.cpu.numWorkItemsCompleted                    0                       # Number of work items this cpu completed (Count)
system.cpu.instsAdded                        15874777                       # Number of instructions added to the IQ (excludes non-spec) (Count)
system.cpu.nonSpecInstsAdded                      114                       # Number of non-speculative instructions added to the IQ (Count)
system.cpu.instsIssued                       13700522                       # Number of instructions issued (Count)
system.cpu.squashedInstsIssued                  75019                       # Number of squashed instructions issued (Count)
system.cpu.squashedInstsExamined              4060545                       # Number of squashed instructions iterated over during squash; mainly for profiling (Count)
system.cpu.squashedOperandsExamined          12151040                       # Number of squashed operands that are examined and possibly removed from graph (Count)
system.cpu.squashedNonSpecRemoved                  18                       # Number of squashed non-spec instructions that were removed (Count)
system.cpu.numIssuedDist::samples             6266028                       # Number of insts issued each cycle (Count)
system.cpu.numIssuedDist::mean               2.186476                       # Number of insts issued each cycle (Count)
system.cpu.numIssuedDist::stdev              2.072720                       # Number of insts issued each cycle (Count)
system.cpu.numIssuedDist::underflows                0      0.00%      0.00% # Number of insts issued each cycle (Count)
system.cpu.numIssuedDist::0                   1821762     29.07%     29.07% # Number of insts issued each cycle (Count)
system.cpu.numIssuedDist::1                    913073     14.57%     43.65% # Number of insts issued each cycle (Count)
system.cpu.numIssuedDist::2                   1169235     18.66%     62.31% # Number of insts issued each cycle (Count)
system.cpu.numIssuedDist::3                    797673     12.73%     75.04% # Number of insts issued each cycle (Count)
system.cpu.numIssuedDist::4                    667670     10.66%     85.69% # Number of insts issued each cycle (Count)
system.cpu.numIssuedDist::5                    387285      6.18%     91.87% # Number of insts issued each cycle (Count)
system.cpu.numIssuedDist::6                    265754      4.24%     96.11% # Number of insts issued each cycle (Count)
system.cpu.numIssuedDist::7                     94277      1.50%     97.62% # Number of insts issued each cycle (Count)
system.cpu.numIssuedDist::8                    149299      2.38%    100.00% # Number of insts issued each cycle (Count)
system.cpu.numIssuedDist::overflows                 0      0.00%    100.00% # Number of insts issued each cycle (Count)
system.cpu.numIssuedDist::min_value                 0                       # Number of insts issued each cycle (Count)
system.cpu.numIssuedDist::max_value                 8                       # Number of insts issued each cycle (Count)
system.cpu.numIssuedDist::total               6266028                       # Number of insts issued each cycle (Count)
system.cpu.statFuBusy::No_OpClass                   0      0.00%      0.00% # attempts to use FU when none available (Count)
system.cpu.statFuBusy::IntAlu                   36752     83.33%     83.33% # attempts to use FU when none available (Count)
system.cpu.statFuBusy::IntMult                      0      0.00%     83.33% # attempts to use FU when none available (Count)
system.cpu.statFuBusy::IntDiv                       0      0.00%     83.33% # attempts to use FU when none available (Count)
system.cpu.statFuBusy::FloatAdd                     0      0.00%     83.33% # attempts to use FU when none available (Count)
system.cpu.statFuBusy::FloatCmp                     0      0.00%     83.33% # attempts to use FU when none available (Count)
system.cpu.statFuBusy::FloatCvt                     0      0.00%     83.33% # attempts to use FU when none available (Count)
system.cpu.statFuBusy::FloatMult                    0      0.00%     83.33% # attempts to use FU when none available (Count)
system.cpu.statFuBusy::FloatMultAcc                 0      0.00%     83.33% # attempts to use FU when none available (Count)
system.cpu.statFuBusy::FloatDiv                     0      0.00%     83.33% # attempts to use FU when none available (Count)
system.cpu.statFuBusy::FloatMisc                    0      0.00%     83.33% # attempts to use FU when none available (Count)
system.cpu.statFuBusy::FloatSqrt                    0      0.00%     83.33% # attempts to use FU when none available (Count)
system.cpu.statFuBusy::SimdAdd                      0      0.00%     83.33% # attempts to use FU when none available (Count)
system.cpu.statFuBusy::SimdAddAcc                   0      0.00%     83.33% # attempts to use FU when none available (Count)
system.cpu.statFuBusy::SimdAlu                      0      0.00%     83.33% # attempts to use FU when none available (Count)
system.cpu.statFuBusy::SimdCmp                      0      0.00%     83.33% # attempts to use FU when none available (Count)
system.cpu.statFuBusy::SimdCvt                      0      0.00%     83.33% # attempts to use FU when none available (Count)
system.cpu.statFuBusy::SimdMisc                     0      0.00%     83.33% # attempts to use FU when none available (Count)
system.cpu.statFuBusy::SimdMult                     0      0.00%     83.33% # attempts to use FU when none available (Count)
system.cpu.statFuBusy::SimdMultAcc                  0      0.00%     83.33% # attempts to use FU when none available (Count)
system.cpu.statFuBusy::SimdShift                    0      0.00%     83.33% # attempts to use FU when none available (Count)
system.cpu.statFuBusy::SimdShiftAcc                 0      0.00%     83.33% # attempts to use FU when none available (Count)
system.cpu.statFuBusy::SimdDiv                      0      0.00%     83.33% # attempts to use FU when none available (Count)
system.cpu.statFuBusy::SimdSqrt                     0      0.00%     83.33% # attempts to use FU when none available (Count)
system.cpu.statFuBusy::SimdFloatAdd                 0      0.00%     83.33% # attempts to use FU when none available (Count)
system.cpu.statFuBusy::SimdFloatAlu                 0      0.00%     83.33% # attempts to use FU when none available (Count)
system.cpu.statFuBusy::SimdFloatCmp                 0      0.00%     83.33% # attempts to use FU when none available (Count)
system.cpu.statFuBusy::SimdFloatCvt                 0      0.00%     83.33% # attempts to use FU when none available (Count)
system.cpu.statFuBusy::SimdFloatDiv                 0      0.00%     83.33% # attempts to use FU when none available (Count)
system.cpu.statFuBusy::SimdFloatMisc                0      0.00%     83.33% # attempts to use FU when none available (Count)
system.cpu.statFuBusy::SimdFloatMult                0      0.00%     83.33% # attempts to use FU when none available (Count)
system.cpu.statFuBusy::SimdFloatMultAcc             0      0.00%     83.33% # attempts to use FU when none available (Count)
system.cpu.statFuBusy::SimdFloatSqrt                0      0.00%     83.33% # attempts to use FU when none available (Count)
system.cpu.statFuBusy::SimdReduceAdd                0      0.00%     83.33% # attempts to use FU when none available (Count)
system.cpu.statFuBusy::SimdReduceAlu                0      0.00%     83.33% # attempts to use FU when none available (Count)
system.cpu.statFuBusy::SimdReduceCmp                0      0.00%     83.33% # attempts to use FU when none available (Count)
system.cpu.statFuBusy::SimdFloatReduceAdd            0      0.00%     83.33% # attempts to use FU when none available (Count)
system.cpu.statFuBusy::SimdFloatReduceCmp            0      0.00%     83.33% # attempts to use FU when none available (Count)
system.cpu.statFuBusy::SimdAes                      0      0.00%     83.33% # attempts to use FU when none available (Count)
system.cpu.statFuBusy::SimdAesMix                   0      0.00%     83.33% # attempts to use FU when none available (Count)
system.cpu.statFuBusy::SimdSha1Hash                 0      0.00%     83.33% # attempts to use FU when none available (Count)
system.cpu.statFuBusy::SimdSha1Hash2                0      0.00%     83.33% # attempts to use FU when none available (Count)
system.cpu.statFuBusy::SimdSha256Hash               0      0.00%     83.33% # attempts to use FU when none available (Count)
system.cpu.statFuBusy::SimdSha256Hash2              0      0.00%     83.33% # attempts to use FU when none available (Count)
system.cpu.statFuBusy::SimdShaSigma2                0      0.00%     83.33% # attempts to use FU when none available (Count)
system.cpu.statFuBusy::SimdShaSigma3                0      0.00%     83.33% # attempts to use FU when none available (Count)
system.cpu.statFuBusy::SimdPredAlu                  0      0.00%     83.33% # attempts to use FU when none available (Count)
system.cpu.statFuBusy::MemRead                   5391     12.22%     95.56% # attempts to use FU when none available (Count)
system.cpu.statFuBusy::MemWrite                  1960      4.44%    100.00% # attempts to use FU when none available (Count)
system.cpu.statFuBusy::FloatMemRead                 0      0.00%    100.00% # attempts to use FU when none available (Count)
system.cpu.statFuBusy::FloatMemWrite                0      0.00%    100.00% # attempts to use FU when none available (Count)
system.cpu.statFuBusy::IprAccess                    0      0.00%    100.00% # attempts to use FU when none available (Count)
system.cpu.statFuBusy::InstPrefetch                 0      0.00%    100.00% # attempts to use FU when none available (Count)
system.cpu.statIssuedInstType_0::No_OpClass            3      0.00%      0.00% # Number of instructions issued per FU type, per thread (Count)
system.cpu.statIssuedInstType_0::IntAlu      10897914     79.54%     79.54% # Number of instructions issued per FU type, per thread (Count)
system.cpu.statIssuedInstType_0::IntMult       198933      1.45%     81.00% # Number of instructions issued per FU type, per thread (Count)
system.cpu.statIssuedInstType_0::IntDiv             0      0.00%     81.00% # Number of instructions issued per FU type, per thread (Count)
system.cpu.statIssuedInstType_0::FloatAdd            0      0.00%     81.00% # Number of instructions issued per FU type, per thread (Count)
system.cpu.statIssuedInstType_0::FloatCmp            0      0.00%     81.00% # Number of instructions issued per FU type, per thread (Count)
system.cpu.statIssuedInstType_0::FloatCvt            0      0.00%     81.00% # Number of instructions issued per FU type, per thread (Count)
system.cpu.statIssuedInstType_0::FloatMult            0      0.00%     81.00% # Number of instructions issued per FU type, per thread (Count)
system.cpu.statIssuedInstType_0::FloatMultAcc            0      0.00%     81.00% # Number of instructions issued per FU type, per thread (Count)
system.cpu.statIssuedInstType_0::FloatDiv            0      0.00%     81.00% # Number of instructions issued per FU type, per thread (Count)
system.cpu.statIssuedInstType_0::FloatMisc            0      0.00%     81.00% # Number of instructions issued per FU type, per thread (Count)
system.cpu.statIssuedInstType_0::FloatSqrt            0      0.00%     81.00% # Number of instructions issued per FU type, per thread (Count)
system.cpu.statIssuedInstType_0::SimdAdd            0      0.00%     81.00% # Number of instructions issued per FU type, per thread (Count)
system.cpu.statIssuedInstType_0::SimdAddAcc            0      0.00%     81.00% # Number of instructions issued per FU type, per thread (Count)
system.cpu.statIssuedInstType_0::SimdAlu            0      0.00%     81.00% # Number of instructions issued per FU type, per thread (Count)
system.cpu.statIssuedInstType_0::SimdCmp            0      0.00%     81.00% # Number of instructions issued per FU type, per thread (Count)
system.cpu.statIssuedInstType_0::SimdCvt            0      0.00%     81.00% # Number of instructions issued per FU type, per thread (Count)
system.cpu.statIssuedInstType_0::SimdMisc            0      0.00%     81.00% # Number of instructions issued per FU type, per thread (Count)
system.cpu.statIssuedInstType_0::SimdMult            0      0.00%     81.00% # Number of instructions issued per FU type, per thread (Count)
system.cpu.statIssuedInstType_0::SimdMultAcc            0      0.00%     81.00% # Number of instructions issued per FU type, per thread (Count)
system.cpu.statIssuedInstType_0::SimdShift            0      0.00%     81.00% # Number of instructions issued per FU type, per thread (Count)
system.cpu.statIssuedInstType_0::SimdShiftAcc            0      0.00%     81.00% # Number of instructions issued per FU type, per thread (Count)
system.cpu.statIssuedInstType_0::SimdDiv            0      0.00%     81.00% # Number of instructions issued per FU type, per thread (Count)
system.cpu.statIssuedInstType_0::SimdSqrt            0      0.00%     81.00% # Number of instructions issued per FU type, per thread (Count)
system.cpu.statIssuedInstType_0::SimdFloatAdd            0      0.00%     81.00% # Number of instructions issued per FU type, per thread (Count)
system.cpu.statIssuedInstType_0::SimdFloatAlu            0      0.00%     81.00% # Number of instructions issued per FU type, per thread (Count)
system.cpu.statIssuedInstType_0::SimdFloatCmp            0      0.00%     81.00% # Number of instructions issued per FU type, per thread (Count)
system.cpu.statIssuedInstType_0::SimdFloatCvt            0      0.00%     81.00% # Number of instructions issued per FU type, per thread (Count)
system.cpu.statIssuedInstType_0::SimdFloatDiv            0      0.00%     81.00% # Number of instructions issued per FU type, per thread (Count)
system.cpu.statIssuedInstType_0::SimdFloatMisc            0      0.00%     81.00% # Number of instructions issued per FU type, per thread (Count)
system.cpu.statIssuedInstType_0::SimdFloatMult            0      0.00%     81.00% # Number of instructions issued per FU type, per thread (Count)
system.cpu.statIssuedInstType_0::SimdFloatMultAcc            0      0.00%     81.00% # Number of instructions issued per FU type, per thread (Count)
system.cpu.statIssuedInstType_0::SimdFloatSqrt            0      0.00%     81.00% # Number of instructions issued per FU type, per thread (Count)
system.cpu.statIssuedInstType_0::SimdReduceAdd            0      0.00%     81.00% # Number of instructions issued per FU type, per thread (Count)
system.cpu.statIssuedInstType_0::SimdReduceAlu            0      0.00%     81.00% # Number of instructions issued per FU type, per thread (Count)
system.cpu.statIssuedInstType_0::SimdReduceCmp            0      0.00%     81.00% # Number of instructions issued per FU type, per thread (Count)
system.cpu.statIssuedInstType_0::SimdFloatReduceAdd            0      0.00%     81.00% # Number of instructions issued per FU type, per thread (Count)
system.cpu.statIssuedInstType_0::SimdFloatReduceCmp            0      0.00%     81.00% # Number of instructions issued per FU type, per thread (Count)
system.cpu.statIssuedInstType_0::SimdAes            0      0.00%     81.00% # Number of instructions issued per FU type, per thread (Count)
system.cpu.statIssuedInstType_0::SimdAesMix            0      0.00%     81.00% # Number of instructions issued per FU type, per thread (Count)
system.cpu.statIssuedInstType_0::SimdSha1Hash            0      0.00%     81.00% # Number of instructions issued per FU type, per thread (Count)
system.cpu.statIssuedInstType_0::SimdSha1Hash2            0      0.00%     81.00% # Number of instructions issued per FU type, per thread (Count)
system.cpu.statIssuedInstType_0::SimdSha256Hash            0      0.00%     81.00% # Number of instructions issued per FU type, per thread (Count)
system.cpu.statIssuedInstType_0::SimdSha256Hash2            0      0.00%     81.00% # Number of instructions issued per FU type, per thread (Count)
system.cpu.statIssuedInstType_0::SimdShaSigma2            0      0.00%     81.00% # Number of instructions issued per FU type, per thread (Count)
system.cpu.statIssuedInstType_0::SimdShaSigma3            0      0.00%     81.00% # Number of instructions issued per FU type, per thread (Count)
system.cpu.statIssuedInstType_0::SimdPredAlu            0      0.00%     81.00% # Number of instructions issued per FU type, per thread (Count)
system.cpu.statIssuedInstType_0::MemRead      1445621     10.55%     91.55% # Number of instructions issued per FU type, per thread (Count)
system.cpu.statIssuedInstType_0::MemWrite      1158051      8.45%    100.00% # Number of instructions issued per FU type, per thread (Count)
system.cpu.statIssuedInstType_0::FloatMemRead            0      0.00%    100.00% # Number of instructions issued per FU type, per thread (Count)
system.cpu.statIssuedInstType_0::FloatMemWrite            0      0.00%    100.00% # Number of instructions issued per FU type, per thread (Count)
system.cpu.statIssuedInstType_0::IprAccess            0      0.00%    100.00% # Number of instructions issued per FU type, per thread (Count)
system.cpu.statIssuedInstType_0::InstPrefetch            0      0.00%    100.00% # Number of instructions issued per FU type, per thread (Count)
system.cpu.statIssuedInstType_0::total       13700522                       # Number of instructions issued per FU type, per thread (Count)
system.cpu.issueRate                         2.179823                       # Inst issue rate ((Count/Cycle))
system.cpu.fuBusy                               44103                       # FU busy when requested (Count)
system.cpu.fuBusyRate                        0.003219                       # FU busy rate (busy events/executed inst) ((Count/Count))
system.cpu.intInstQueueReads                 33786194                       # Number of integer instruction queue reads (Count)
system.cpu.intInstQueueWrites                19935635                       # Number of integer instruction queue writes (Count)
system.cpu.intInstQueueWakeupAccesses        13224632                       # Number of integer instruction queue wakeup accesses (Count)
system.cpu.fpInstQueueReads                         0                       # Number of floating instruction queue reads (Count)
system.cpu.fpInstQueueWrites                        0                       # Number of floating instruction queue writes (Count)
system.cpu.fpInstQueueWakeupAccesses                0                       # Number of floating instruction queue wakeup accesses (Count)
system.cpu.vecInstQueueReads                        0                       # Number of vector instruction queue reads (Count)
system.cpu.vecInstQueueWrites                       0                       # Number of vector instruction queue writes (Count)
system.cpu.vecInstQueueWakeupAccesses               0                       # Number of vector instruction queue wakeup accesses (Count)
system.cpu.intAluAccesses                    13744622                       # Number of integer alu accesses (Count)
system.cpu.fpAluAccesses                            0                       # Number of floating point alu accesses (Count)
system.cpu.vecAluAccesses                           0                       # Number of vector alu accesses (Count)
system.cpu.numInsts                          13495145                       # Number of executed instructions (Count)
system.cpu.numLoadInsts                       1411943                       # Number of load instructions executed (Count)
system.cpu.numSquashedInsts                    205377                       # Number of squashed instructions skipped in execute (Count)
system.cpu.numSwp                                   0                       # Number of swp insts executed (Count)
system.cpu.numNop                                   0                       # Number of nop insts executed (Count)
system.cpu.numRefs                            2538751                       # Number of memory reference insts executed (Count)
system.cpu.numBranches                        1628366                       # Number of branches executed (Count)
system.cpu.numStoreInsts                      1126808                       # Number of stores executed (Count)
system.cpu.numRate                           2.147147                       # Inst execution rate ((Count/Cycle))
system.cpu.timesIdled                             196                       # Number of times that the entire CPU went into an idle state and unscheduled itself (Count)
system.cpu.idleCycles                           19125                       # Total number of cycles that the CPU has spent unscheduled due to idling (Cycle)
system.cpu.committedInsts                    10000000                       # Number of Instructions Simulated (Count)
system.cpu.committedOps                      11814314                       # Number of Ops (including micro ops) Simulated (Count)
system.cpu.cpi                               0.628515                       # CPI: Cycles Per Instruction ((Cycle/Count))
system.cpu.totalCpi                          0.628515                       # CPI: Total CPI of All Threads ((Cycle/Count))
system.cpu.ipc                               1.591051                       # IPC: Instructions Per Cycle ((Count/Cycle))
system.cpu.totalIpc                          1.591051                       # IPC: Total IPC of All Threads ((Count/Cycle))
system.cpu.intRegfileReads                   17097400                       # Number of integer regfile reads (Count)
system.cpu.intRegfileWrites                  10640061                       # Number of integer regfile writes (Count)
system.cpu.vecRegfileReads                         32                       # number of vector regfile reads (Count)
system.cpu.ccRegfileReads                    44137677                       # number of cc regfile reads (Count)
system.cpu.ccRegfileWrites                    5342252                       # number of cc regfile writes (Count)
system.cpu.miscRegfileReads                   2278928                       # number of misc regfile reads (Count)
system.cpu.miscRegfileWrites                      165                       # number of misc regfile writes (Count)
system.cpu.MemDepUnit__0.insertedLoads        1371107                       # Number of loads inserted to the mem dependence unit. (Count)
system.cpu.MemDepUnit__0.insertedStores       1353575                       # Number of stores inserted to the mem dependence unit. (Count)
system.cpu.MemDepUnit__0.conflictingLoads       225692                       # Number of conflicting loads. (Count)
system.cpu.MemDepUnit__0.conflictingStores       458189                       # Number of conflicting stores. (Count)
system.cpu.MemDepUnit__1.insertedLoads              0                       # Number of loads inserted to the mem dependence unit. (Count)
system.cpu.MemDepUnit__1.insertedStores             0                       # Number of stores inserted to the mem dependence unit. (Count)
system.cpu.MemDepUnit__1.conflictingLoads            0                       # Number of conflicting loads. (Count)
system.cpu.MemDepUnit__1.conflictingStores            0                       # Number of conflicting stores. (Count)
system.cpu.MemDepUnit__2.insertedLoads              0                       # Number of loads inserted to the mem dependence unit. (Count)
system.cpu.MemDepUnit__2.insertedStores             0                       # Number of stores inserted to the mem dependence unit. (Count)
system.cpu.MemDepUnit__2.conflictingLoads            0                       # Number of conflicting loads. (Count)
system.cpu.MemDepUnit__2.conflictingStores            0                       # Number of conflicting stores. (Count)
system.cpu.MemDepUnit__3.insertedLoads              0                       # Number of loads inserted to the mem dependence unit. (Count)
system.cpu.MemDepUnit__3.insertedStores             0                       # Number of stores inserted to the mem dependence unit. (Count)
system.cpu.MemDepUnit__3.conflictingLoads            0                       # Number of conflicting loads. (Count)
system.cpu.MemDepUnit__3.conflictingStores            0                       # Number of conflicting stores. (Count)
system.cpu.branchPred.lookups                 2339685                       # Number of BP lookups (Count)
system.cpu.branchPred.condPredicted           1566635                       # Number of conditional branches predicted (Count)
system.cpu.branchPred.condIncorrect            153030                       # Number of conditional branches incorrect (Count)
system.cpu.branchPred.BTBLookups              1427909                       # Number of BTB lookups (Count)
system.cpu.branchPred.BTBHits                 1224846                       # Number of BTB hits (Count)
system.cpu.branchPred.BTBHitRatio            0.857790                       # BTB Hit Ratio (Ratio)
system.cpu.branchPred.RASUsed                  495204                       # Number of times the RAS was used to get a target. (Count)
system.cpu.branchPred.RASIncorrect              55679                       # Number of incorrect RAS predictions. (Count)
system.cpu.branchPred.indirectLookups             219                       # Number of indirect predictor lookups. (Count)
system.cpu.branchPred.indirectHits                 43                       # Number of indirect target hits. (Count)
system.cpu.branchPred.indirectMisses              176                       # Number of indirect misses. (Count)
system.cpu.branchPred.indirectMispredicted           70                       # Number of mispredicted indirect branches. (Count)
system.cpu.commit.commitSquashedInsts         4056050                       # The number of squashed insts skipped by commit (Count)
system.cpu.commit.commitNonSpecStalls              96                       # The number of times commit has been forced to stall to communicate backwards (Count)
system.cpu.commit.branchMispredicts            152857                       # The number of times a branch was mispredicted (Count)
system.cpu.commit.numCommittedDist::samples      5704934                       # Number of insts commited each cycle (Count)
system.cpu.commit.numCommittedDist::mean     2.070894                       # Number of insts commited each cycle (Count)
system.cpu.commit.numCommittedDist::stdev     2.380832                       # Number of insts commited each cycle (Count)
system.cpu.commit.numCommittedDist::underflows            0      0.00%      0.00% # Number of insts commited each cycle (Count)
system.cpu.commit.numCommittedDist::0         1831151     32.10%     32.10% # Number of insts commited each cycle (Count)
system.cpu.commit.numCommittedDist::1         1506250     26.40%     58.50% # Number of insts commited each cycle (Count)
system.cpu.commit.numCommittedDist::2          475781      8.34%     66.84% # Number of insts commited each cycle (Count)
system.cpu.commit.numCommittedDist::3          644793     11.30%     78.14% # Number of insts commited each cycle (Count)
system.cpu.commit.numCommittedDist::4          366724      6.43%     84.57% # Number of insts commited each cycle (Count)
system.cpu.commit.numCommittedDist::5          213087      3.74%     88.31% # Number of insts commited each cycle (Count)
system.cpu.commit.numCommittedDist::6          204973      3.59%     91.90% # Number of insts commited each cycle (Count)
system.cpu.commit.numCommittedDist::7           37446      0.66%     92.56% # Number of insts commited each cycle (Count)
system.cpu.commit.numCommittedDist::8          424729      7.44%    100.00% # Number of insts commited each cycle (Count)
system.cpu.commit.numCommittedDist::overflows            0      0.00%    100.00% # Number of insts commited each cycle (Count)
system.cpu.commit.numCommittedDist::min_value            0                       # Number of insts commited each cycle (Count)
system.cpu.commit.numCommittedDist::max_value            8                       # Number of insts commited each cycle (Count)
system.cpu.commit.numCommittedDist::total      5704934                       # Number of insts commited each cycle (Count)
system.cpu.commit.instsCommitted             10000000                       # Number of instructions committed (Count)
system.cpu.commit.opsCommitted               11814314                       # Number of ops (including micro ops) committed (Count)
system.cpu.commit.memRefs                     2148213                       # Number of memory references committed (Count)
system.cpu.commit.loads                       1047175                       # Number of loads committed (Count)
system.cpu.commit.amos                              0                       # Number of atomic instructions committed (Count)
system.cpu.commit.membars                          42                       # Number of memory barriers committed (Count)
system.cpu.commit.branches                    1423131                       # Number of branches committed (Count)
system.cpu.commit.vectorInstructions                0                       # Number of committed Vector instructions. (Count)
system.cpu.commit.floating                          0                       # Number of committed floating point instructions. (Count)
system.cpu.commit.integer                    11217600                       # Number of committed integer instructions. (Count)
system.cpu.commit.functionCalls                386128                       # Number of function calls committed. (Count)
system.cpu.commit.committedInstType_0::No_OpClass            0      0.00%      0.00% # Class of committed instruction (Count)
system.cpu.commit.committedInstType_0::IntAlu      9476256     80.21%     80.21% # Class of committed instruction (Count)
system.cpu.commit.committedInstType_0::IntMult       189845      1.61%     81.82% # Class of committed instruction (Count)
system.cpu.commit.committedInstType_0::IntDiv            0      0.00%     81.82% # Class of committed instruction (Count)
system.cpu.commit.committedInstType_0::FloatAdd            0      0.00%     81.82% # Class of committed instruction (Count)
system.cpu.commit.committedInstType_0::FloatCmp            0      0.00%     81.82% # Class of committed instruction (Count)
system.cpu.commit.committedInstType_0::FloatCvt            0      0.00%     81.82% # Class of committed instruction (Count)
system.cpu.commit.committedInstType_0::FloatMult            0      0.00%     81.82% # Class of committed instruction (Count)
system.cpu.commit.committedInstType_0::FloatMultAcc            0      0.00%     81.82% # Class of committed instruction (Count)
system.cpu.commit.committedInstType_0::FloatDiv            0      0.00%     81.82% # Class of committed instruction (Count)
system.cpu.commit.committedInstType_0::FloatMisc            0      0.00%     81.82% # Class of committed instruction (Count)
system.cpu.commit.committedInstType_0::FloatSqrt            0      0.00%     81.82% # Class of committed instruction (Count)
system.cpu.commit.committedInstType_0::SimdAdd            0      0.00%     81.82% # Class of committed instruction (Count)
system.cpu.commit.committedInstType_0::SimdAddAcc            0      0.00%     81.82% # Class of committed instruction (Count)
system.cpu.commit.committedInstType_0::SimdAlu            0      0.00%     81.82% # Class of committed instruction (Count)
system.cpu.commit.committedInstType_0::SimdCmp            0      0.00%     81.82% # Class of committed instruction (Count)
system.cpu.commit.committedInstType_0::SimdCvt            0      0.00%     81.82% # Class of committed instruction (Count)
system.cpu.commit.committedInstType_0::SimdMisc            0      0.00%     81.82% # Class of committed instruction (Count)
system.cpu.commit.committedInstType_0::SimdMult            0      0.00%     81.82% # Class of committed instruction (Count)
system.cpu.commit.committedInstType_0::SimdMultAcc            0      0.00%     81.82% # Class of committed instruction (Count)
system.cpu.commit.committedInstType_0::SimdShift            0      0.00%     81.82% # Class of committed instruction (Count)
system.cpu.commit.committedInstType_0::SimdShiftAcc            0      0.00%     81.82% # Class of committed instruction (Count)
system.cpu.commit.committedInstType_0::SimdDiv            0      0.00%     81.82% # Class of committed instruction (Count)
system.cpu.commit.committedInstType_0::SimdSqrt            0      0.00%     81.82% # Class of committed instruction (Count)
system.cpu.commit.committedInstType_0::SimdFloatAdd            0      0.00%     81.82% # Class of committed instruction (Count)
system.cpu.commit.committedInstType_0::SimdFloatAlu            0      0.00%     81.82% # Class of committed instruction (Count)
system.cpu.commit.committedInstType_0::SimdFloatCmp            0      0.00%     81.82% # Class of committed instruction (Count)
system.cpu.commit.committedInstType_0::SimdFloatCvt            0      0.00%     81.82% # Class of committed instruction (Count)
system.cpu.commit.committedInstType_0::SimdFloatDiv            0      0.00%     81.82% # Class of committed instruction (Count)
system.cpu.commit.committedInstType_0::SimdFloatMisc            0      0.00%     81.82% # Class of committed instruction (Count)
system.cpu.commit.committedInstType_0::SimdFloatMult            0      0.00%     81.82% # Class of committed instruction (Count)
system.cpu.commit.committedInstType_0::SimdFloatMultAcc            0      0.00%     81.82% # Class of committed instruction (Count)
system.cpu.commit.committedInstType_0::SimdFloatSqrt            0      0.00%     81.82% # Class of committed instruction (Count)
system.cpu.commit.committedInstType_0::SimdReduceAdd            0      0.00%     81.82% # Class of committed instruction (Count)
system.cpu.commit.committedInstType_0::SimdReduceAlu            0      0.00%     81.82% # Class of committed instruction (Count)
system.cpu.commit.committedInstType_0::SimdReduceCmp            0      0.00%     81.82% # Class of committed instruction (Count)
system.cpu.commit.committedInstType_0::SimdFloatReduceAdd            0      0.00%     81.82% # Class of committed instruction (Count)
system.cpu.commit.committedInstType_0::SimdFloatReduceCmp            0      0.00%     81.82% # Class of committed instruction (Count)
system.cpu.commit.committedInstType_0::SimdAes            0      0.00%     81.82% # Class of committed instruction (Count)
system.cpu.commit.committedInstType_0::SimdAesMix            0      0.00%     81.82% # Class of committed instruction (Count)
system.cpu.commit.committedInstType_0::SimdSha1Hash            0      0.00%     81.82% # Class of committed instruction (Count)
system.cpu.commit.committedInstType_0::SimdSha1Hash2            0      0.00%     81.82% # Class of committed instruction (Count)
system.cpu.commit.committedInstType_0::SimdSha256Hash            0      0.00%     81.82% # Class of committed instruction (Count)
system.cpu.commit.committedInstType_0::SimdSha256Hash2            0      0.00%     81.82% # Class of committed instruction (Count)
system.cpu.commit.committedInstType_0::SimdShaSigma2            0      0.00%     81.82% # Class of committed instruction (Count)
system.cpu.commit.committedInstType_0::SimdShaSigma3            0      0.00%     81.82% # Class of committed instruction (Count)
system.cpu.commit.committedInstType_0::SimdPredAlu            0      0.00%     81.82% # Class of committed instruction (Count)
system.cpu.commit.committedInstType_0::MemRead      1047175      8.86%     90.68% # Class of committed instruction (Count)
system.cpu.commit.committedInstType_0::MemWrite      1101038      9.32%    100.00% # Class of committed instruction (Count)
system.cpu.commit.committedInstType_0::FloatMemRead            0      0.00%    100.00% # Class of committed instruction (Count)
system.cpu.commit.committedInstType_0::FloatMemWrite            0      0.00%    100.00% # Class of committed instruction (Count)
system.cpu.commit.committedInstType_0::IprAccess            0      0.00%    100.00% # Class of committed instruction (Count)
system.cpu.commit.committedInstType_0::InstPrefetch            0      0.00%    100.00% # Class of committed instruction (Count)
system.cpu.commit.committedInstType_0::total     11814314                       # Class of committed instruction (Count)
system.cpu.commit.commitEligibleSamples        424729                       # number cycles where commit BW limit reached (Cycle)
system.cpu.dcache.demandHits::cpu.data        2175653                       # number of demand (read+write) hits (Count)
system.cpu.dcache.demandHits::total           2175653                       # number of demand (read+write) hits (Count)
system.cpu.dcache.overallHits::cpu.data       2175653                       # number of overall hits (Count)
system.cpu.dcache.overallHits::total          2175653                       # number of overall hits (Count)
system.cpu.dcache.demandMisses::cpu.data        25482                       # number of demand (read+write) misses (Count)
system.cpu.dcache.demandMisses::total           25482                       # number of demand (read+write) misses (Count)
system.cpu.dcache.overallMisses::cpu.data        25482                       # number of overall misses (Count)
system.cpu.dcache.overallMisses::total          25482                       # number of overall misses (Count)
system.cpu.dcache.demandMissLatency::cpu.data   1439021998                       # number of demand (read+write) miss ticks (Tick)
system.cpu.dcache.demandMissLatency::total   1439021998                       # number of demand (read+write) miss ticks (Tick)
system.cpu.dcache.overallMissLatency::cpu.data   1439021998                       # number of overall miss ticks (Tick)
system.cpu.dcache.overallMissLatency::total   1439021998                       # number of overall miss ticks (Tick)
system.cpu.dcache.demandAccesses::cpu.data      2201135                       # number of demand (read+write) accesses (Count)
system.cpu.dcache.demandAccesses::total       2201135                       # number of demand (read+write) accesses (Count)
system.cpu.dcache.overallAccesses::cpu.data      2201135                       # number of overall (read+write) accesses (Count)
system.cpu.dcache.overallAccesses::total      2201135                       # number of overall (read+write) accesses (Count)
system.cpu.dcache.demandMissRate::cpu.data     0.011577                       # miss rate for demand accesses (Ratio)
system.cpu.dcache.demandMissRate::total      0.011577                       # miss rate for demand accesses (Ratio)
system.cpu.dcache.overallMissRate::cpu.data     0.011577                       # miss rate for overall accesses (Ratio)
system.cpu.dcache.overallMissRate::total     0.011577                       # miss rate for overall accesses (Ratio)
system.cpu.dcache.demandAvgMissLatency::cpu.data 56472.097873                       # average overall miss latency in ticks ((Tick/Count))
system.cpu.dcache.demandAvgMissLatency::total 56472.097873                       # average overall miss latency in ticks ((Tick/Count))
system.cpu.dcache.overallAvgMissLatency::cpu.data 56472.097873                       # average overall miss latency ((Tick/Count))
system.cpu.dcache.overallAvgMissLatency::total 56472.097873                       # average overall miss latency ((Tick/Count))
system.cpu.dcache.blockedCycles::no_mshrs          416                       # number of cycles access was blocked (Cycle)
system.cpu.dcache.blockedCycles::no_targets            0                       # number of cycles access was blocked (Cycle)
system.cpu.dcache.blockedCauses::no_mshrs           10                       # number of times access was blocked (Count)
system.cpu.dcache.blockedCauses::no_targets            0                       # number of times access was blocked (Count)
system.cpu.dcache.avgBlocked::no_mshrs      41.600000                       # average number of cycles each access was blocked ((Cycle/Count))
system.cpu.dcache.avgBlocked::no_targets          nan                       # average number of cycles each access was blocked ((Cycle/Count))
system.cpu.dcache.writebacks::writebacks         6452                       # number of writebacks (Count)
system.cpu.dcache.writebacks::total              6452                       # number of writebacks (Count)
system.cpu.dcache.demandMshrHits::cpu.data        18432                       # number of demand (read+write) MSHR hits (Count)
system.cpu.dcache.demandMshrHits::total         18432                       # number of demand (read+write) MSHR hits (Count)
system.cpu.dcache.overallMshrHits::cpu.data        18432                       # number of overall MSHR hits (Count)
system.cpu.dcache.overallMshrHits::total        18432                       # number of overall MSHR hits (Count)
system.cpu.dcache.demandMshrMisses::cpu.data         7050                       # number of demand (read+write) MSHR misses (Count)
system.cpu.dcache.demandMshrMisses::total         7050                       # number of demand (read+write) MSHR misses (Count)
system.cpu.dcache.overallMshrMisses::cpu.data         7050                       # number of overall MSHR misses (Count)
system.cpu.dcache.overallMshrMisses::total         7050                       # number of overall MSHR misses (Count)
system.cpu.dcache.demandMshrMissLatency::cpu.data    531340499                       # number of demand (read+write) MSHR miss ticks (Tick)
system.cpu.dcache.demandMshrMissLatency::total    531340499                       # number of demand (read+write) MSHR miss ticks (Tick)
system.cpu.dcache.overallMshrMissLatency::cpu.data    531340499                       # number of overall MSHR miss ticks (Tick)
system.cpu.dcache.overallMshrMissLatency::total    531340499                       # number of overall MSHR miss ticks (Tick)
system.cpu.dcache.demandMshrMissRate::cpu.data     0.003203                       # mshr miss ratio for demand accesses (Ratio)
system.cpu.dcache.demandMshrMissRate::total     0.003203                       # mshr miss ratio for demand accesses (Ratio)
system.cpu.dcache.overallMshrMissRate::cpu.data     0.003203                       # mshr miss ratio for overall accesses (Ratio)
system.cpu.dcache.overallMshrMissRate::total     0.003203                       # mshr miss ratio for overall accesses (Ratio)
system.cpu.dcache.demandAvgMshrMissLatency::cpu.data 75367.446667                       # average overall mshr miss latency ((Tick/Count))
system.cpu.dcache.demandAvgMshrMissLatency::total 75367.446667                       # average overall mshr miss latency ((Tick/Count))
system.cpu.dcache.overallAvgMshrMissLatency::cpu.data 75367.446667                       # average overall mshr miss latency ((Tick/Count))
system.cpu.dcache.overallAvgMshrMissLatency::total 75367.446667                       # average overall mshr miss latency ((Tick/Count))
system.cpu.dcache.replacements                   6538                       # number of replacements (Count)
system.cpu.dcache.LoadLockedReq.hits::cpu.data           44                       # number of LoadLockedReq hits (Count)
system.cpu.dcache.LoadLockedReq.hits::total           44                       # number of LoadLockedReq hits (Count)
system.cpu.dcache.LoadLockedReq.misses::cpu.data            3                       # number of LoadLockedReq misses (Count)
system.cpu.dcache.LoadLockedReq.misses::total            3                       # number of LoadLockedReq misses (Count)
system.cpu.dcache.LoadLockedReq.missLatency::cpu.data       130000                       # number of LoadLockedReq miss ticks (Tick)
system.cpu.dcache.LoadLockedReq.missLatency::total       130000                       # number of LoadLockedReq miss ticks (Tick)
system.cpu.dcache.LoadLockedReq.accesses::cpu.data           47                       # number of LoadLockedReq accesses(hits+misses) (Count)
system.cpu.dcache.LoadLockedReq.accesses::total           47                       # number of LoadLockedReq accesses(hits+misses) (Count)
system.cpu.dcache.LoadLockedReq.missRate::cpu.data     0.063830                       # miss rate for LoadLockedReq accesses (Ratio)
system.cpu.dcache.LoadLockedReq.missRate::total     0.063830                       # miss rate for LoadLockedReq accesses (Ratio)
system.cpu.dcache.LoadLockedReq.avgMissLatency::cpu.data 43333.333333                       # average LoadLockedReq miss latency ((Tick/Count))
system.cpu.dcache.LoadLockedReq.avgMissLatency::total 43333.333333                       # average LoadLockedReq miss latency ((Tick/Count))
system.cpu.dcache.LoadLockedReq.mshrHits::cpu.data            3                       # number of LoadLockedReq MSHR hits (Count)
system.cpu.dcache.LoadLockedReq.mshrHits::total            3                       # number of LoadLockedReq MSHR hits (Count)
system.cpu.dcache.ReadReq.hits::cpu.data      1099967                       # number of ReadReq hits (Count)
system.cpu.dcache.ReadReq.hits::total         1099967                       # number of ReadReq hits (Count)
system.cpu.dcache.ReadReq.misses::cpu.data          184                       # number of ReadReq misses (Count)
system.cpu.dcache.ReadReq.misses::total           184                       # number of ReadReq misses (Count)
system.cpu.dcache.ReadReq.missLatency::cpu.data     11004000                       # number of ReadReq miss ticks (Tick)
system.cpu.dcache.ReadReq.missLatency::total     11004000                       # number of ReadReq miss ticks (Tick)
system.cpu.dcache.ReadReq.accesses::cpu.data      1100151                       # number of ReadReq accesses(hits+misses) (Count)
system.cpu.dcache.ReadReq.accesses::total      1100151                       # number of ReadReq accesses(hits+misses) (Count)
system.cpu.dcache.ReadReq.missRate::cpu.data     0.000167                       # miss rate for ReadReq accesses (Ratio)
system.cpu.dcache.ReadReq.missRate::total     0.000167                       # miss rate for ReadReq accesses (Ratio)
system.cpu.dcache.ReadReq.avgMissLatency::cpu.data 59804.347826                       # average ReadReq miss latency ((Tick/Count))
system.cpu.dcache.ReadReq.avgMissLatency::total 59804.347826                       # average ReadReq miss latency ((Tick/Count))
system.cpu.dcache.ReadReq.mshrHits::cpu.data           80                       # number of ReadReq MSHR hits (Count)
system.cpu.dcache.ReadReq.mshrHits::total           80                       # number of ReadReq MSHR hits (Count)
system.cpu.dcache.ReadReq.mshrMisses::cpu.data          104                       # number of ReadReq MSHR misses (Count)
system.cpu.dcache.ReadReq.mshrMisses::total          104                       # number of ReadReq MSHR misses (Count)
system.cpu.dcache.ReadReq.mshrMissLatency::cpu.data      6646000                       # number of ReadReq MSHR miss ticks (Tick)
system.cpu.dcache.ReadReq.mshrMissLatency::total      6646000                       # number of ReadReq MSHR miss ticks (Tick)
system.cpu.dcache.ReadReq.mshrMissRate::cpu.data     0.000095                       # mshr miss rate for ReadReq accesses (Ratio)
system.cpu.dcache.ReadReq.mshrMissRate::total     0.000095                       # mshr miss rate for ReadReq accesses (Ratio)
system.cpu.dcache.ReadReq.avgMshrMissLatency::cpu.data 63903.846154                       # average ReadReq mshr miss latency ((Tick/Count))
system.cpu.dcache.ReadReq.avgMshrMissLatency::total 63903.846154                       # average ReadReq mshr miss latency ((Tick/Count))
system.cpu.dcache.StoreCondReq.hits::cpu.data           41                       # number of StoreCondReq hits (Count)
system.cpu.dcache.StoreCondReq.hits::total           41                       # number of StoreCondReq hits (Count)
system.cpu.dcache.StoreCondReq.accesses::cpu.data           41                       # number of StoreCondReq accesses(hits+misses) (Count)
system.cpu.dcache.StoreCondReq.accesses::total           41                       # number of StoreCondReq accesses(hits+misses) (Count)
system.cpu.dcache.WriteReq.hits::cpu.data      1075686                       # number of WriteReq hits (Count)
system.cpu.dcache.WriteReq.hits::total        1075686                       # number of WriteReq hits (Count)
system.cpu.dcache.WriteReq.misses::cpu.data        25298                       # number of WriteReq misses (Count)
system.cpu.dcache.WriteReq.misses::total        25298                       # number of WriteReq misses (Count)
system.cpu.dcache.WriteReq.missLatency::cpu.data   1428017998                       # number of WriteReq miss ticks (Tick)
system.cpu.dcache.WriteReq.missLatency::total   1428017998                       # number of WriteReq miss ticks (Tick)
system.cpu.dcache.WriteReq.accesses::cpu.data      1100984                       # number of WriteReq accesses(hits+misses) (Count)
system.cpu.dcache.WriteReq.accesses::total      1100984                       # number of WriteReq accesses(hits+misses) (Count)
system.cpu.dcache.WriteReq.missRate::cpu.data     0.022978                       # miss rate for WriteReq accesses (Ratio)
system.cpu.dcache.WriteReq.missRate::total     0.022978                       # miss rate for WriteReq accesses (Ratio)
system.cpu.dcache.WriteReq.avgMissLatency::cpu.data 56447.861412                       # average WriteReq miss latency ((Tick/Count))
system.cpu.dcache.WriteReq.avgMissLatency::total 56447.861412                       # average WriteReq miss latency ((Tick/Count))
system.cpu.dcache.WriteReq.mshrHits::cpu.data        18352                       # number of WriteReq MSHR hits (Count)
system.cpu.dcache.WriteReq.mshrHits::total        18352                       # number of WriteReq MSHR hits (Count)
system.cpu.dcache.WriteReq.mshrMisses::cpu.data         6946                       # number of WriteReq MSHR misses (Count)
system.cpu.dcache.WriteReq.mshrMisses::total         6946                       # number of WriteReq MSHR misses (Count)
system.cpu.dcache.WriteReq.mshrMissLatency::cpu.data    524694499                       # number of WriteReq MSHR miss ticks (Tick)
system.cpu.dcache.WriteReq.mshrMissLatency::total    524694499                       # number of WriteReq MSHR miss ticks (Tick)
system.cpu.dcache.WriteReq.mshrMissRate::cpu.data     0.006309                       # mshr miss rate for WriteReq accesses (Ratio)
system.cpu.dcache.WriteReq.mshrMissRate::total     0.006309                       # mshr miss rate for WriteReq accesses (Ratio)
system.cpu.dcache.WriteReq.avgMshrMissLatency::cpu.data 75539.087100                       # average WriteReq mshr miss latency ((Tick/Count))
system.cpu.dcache.WriteReq.avgMshrMissLatency::total 75539.087100                       # average WriteReq mshr miss latency ((Tick/Count))
system.cpu.dcache.power_state.pwrStateResidencyTicks::UNDEFINED   3142576000                       # Cumulative time (in ticks) in various power states (Tick)
system.cpu.dcache.tags.tagsInUse           496.089329                       # Average ticks per tags in use ((Tick/Count))
system.cpu.dcache.tags.totalRefs              2182788                       # Total number of references to valid blocks. (Count)
system.cpu.dcache.tags.sampledRefs               7050                       # Sample count of references to valid blocks. (Count)
system.cpu.dcache.tags.avgRefs             309.615319                       # Average number of references to valid blocks. ((Count/Count))
system.cpu.dcache.tags.warmupTick              148500                       # The tick when the warmup percentage was hit. (Tick)
system.cpu.dcache.tags.occupancies::cpu.data   496.089329                       # Average occupied blocks per tick, per requestor ((Count/Tick))
system.cpu.dcache.tags.avgOccs::cpu.data     0.968924                       # Average percentage of cache occupancy ((Ratio/Tick))
system.cpu.dcache.tags.avgOccs::total        0.968924                       # Average percentage of cache occupancy ((Ratio/Tick))
system.cpu.dcache.tags.occupanciesTaskId::1024          512                       # Occupied blocks per task id (Count)
system.cpu.dcache.tags.ageTaskId_1024::0           23                       # Occupied blocks per task id, per block age (Count)
system.cpu.dcache.tags.ageTaskId_1024::1          210                       # Occupied blocks per task id, per block age (Count)
system.cpu.dcache.tags.ageTaskId_1024::2          277                       # Occupied blocks per task id, per block age (Count)
system.cpu.dcache.tags.ageTaskId_1024::3            2                       # Occupied blocks per task id, per block age (Count)
system.cpu.dcache.tags.ratioOccsTaskId::1024            1                       # Ratio of occupied blocks and all blocks, per task id (Ratio)
system.cpu.dcache.tags.tagAccesses            4409496                       # Number of tag accesses (Count)
system.cpu.dcache.tags.dataAccesses           4409496                       # Number of data accesses (Count)
system.cpu.dcache.tags.power_state.pwrStateResidencyTicks::UNDEFINED   3142576000                       # Cumulative time (in ticks) in various power states (Tick)
system.cpu.decode.idleCycles                  2337903                       # Number of cycles decode is idle (Cycle)
system.cpu.decode.blockedCycles                653818                       # Number of cycles decode is blocked (Cycle)
system.cpu.decode.runCycles                   3003006                       # Number of cycles decode is running (Cycle)
system.cpu.decode.unblockCycles                118206                       # Number of cycles decode is unblocking (Cycle)
system.cpu.decode.squashCycles                 153095                       # Number of cycles decode is squashing (Cycle)
system.cpu.decode.branchResolved              1199007                       # Number of times decode resolved a branch (Count)
system.cpu.decode.branchMispred                   185                       # Number of times decode detected a branch misprediction (Count)
system.cpu.decode.decodedInsts               17297929                       # Number of instructions handled by decode (Count)
system.cpu.decode.squashedInsts                   583                       # Number of squashed instructions handled by decode (Count)
system.cpu.fetch.icacheStallCycles            2576192                       # Number of cycles fetch is stalled on an Icache miss (Cycle)
system.cpu.fetch.insts                       15136475                       # Number of instructions fetch has processed (Count)
system.cpu.fetch.branches                     2339685                       # Number of branches that fetch encountered (Count)
system.cpu.fetch.predictedBranches            1720093                       # Number of branches that fetch has predicted taken (Count)
system.cpu.fetch.cycles                       3536417                       # Number of cycles fetch has run and was not squashing or blocked (Cycle)
system.cpu.fetch.squashCycles                  306542                       # Number of cycles fetch has spent squashing (Cycle)
system.cpu.fetch.miscStallCycles                   51                       # Number of cycles fetch has spent waiting on interrupts, or bad addresses, or out of MSHRs (Cycle)
system.cpu.fetch.pendingTrapStallCycles            27                       # Number of stall cycles due to pending traps (Cycle)
system.cpu.fetch.icacheWaitRetryStallCycles           70                       # Number of stall cycles due to full MSHR (Cycle)
system.cpu.fetch.cacheLines                   2489475                       # Number of cache lines fetched (Count)
system.cpu.fetch.icacheSquashes                 70756                       # Number of outstanding Icache misses that were squashed (Count)
system.cpu.fetch.nisnDist::samples            6266028                       # Number of instructions fetched each cycle (Total) (Count)
system.cpu.fetch.nisnDist::mean              2.836490                       # Number of instructions fetched each cycle (Total) (Count)
system.cpu.fetch.nisnDist::stdev             3.214502                       # Number of instructions fetched each cycle (Total) (Count)
system.cpu.fetch.nisnDist::underflows               0      0.00%      0.00% # Number of instructions fetched each cycle (Total) (Count)
system.cpu.fetch.nisnDist::0                  2938274     46.89%     46.89% # Number of instructions fetched each cycle (Total) (Count)
system.cpu.fetch.nisnDist::1                   205427      3.28%     50.17% # Number of instructions fetched each cycle (Total) (Count)
system.cpu.fetch.nisnDist::2                   273717      4.37%     54.54% # Number of instructions fetched each cycle (Total) (Count)
system.cpu.fetch.nisnDist::3                   624703      9.97%     64.51% # Number of instructions fetched each cycle (Total) (Count)
system.cpu.fetch.nisnDist::4                   327278      5.22%     69.73% # Number of instructions fetched each cycle (Total) (Count)
system.cpu.fetch.nisnDist::5                   201546      3.22%     72.95% # Number of instructions fetched each cycle (Total) (Count)
system.cpu.fetch.nisnDist::6                   221323      3.53%     76.48% # Number of instructions fetched each cycle (Total) (Count)
system.cpu.fetch.nisnDist::7                   288304      4.60%     81.08% # Number of instructions fetched each cycle (Total) (Count)
system.cpu.fetch.nisnDist::8                  1185456     18.92%    100.00% # Number of instructions fetched each cycle (Total) (Count)
system.cpu.fetch.nisnDist::overflows                0      0.00%    100.00% # Number of instructions fetched each cycle (Total) (Count)
system.cpu.fetch.nisnDist::min_value                0                       # Number of instructions fetched each cycle (Total) (Count)
system.cpu.fetch.nisnDist::max_value                8                       # Number of instructions fetched each cycle (Total) (Count)
system.cpu.fetch.nisnDist::total              6266028                       # Number of instructions fetched each cycle (Total) (Count)
system.cpu.fetch.branchRate                  0.372256                       # Number of branch fetches per cycle (Ratio)
system.cpu.fetch.rate                        2.408291                       # Number of inst fetches per cycle ((Count/Cycle))
system.cpu.icache.demandHits::cpu.inst        2489042                       # number of demand (read+write) hits (Count)
system.cpu.icache.demandHits::total           2489042                       # number of demand (read+write) hits (Count)
system.cpu.icache.overallHits::cpu.inst       2489042                       # number of overall hits (Count)
system.cpu.icache.overallHits::total          2489042                       # number of overall hits (Count)
system.cpu.icache.demandMisses::cpu.inst          432                       # number of demand (read+write) misses (Count)
system.cpu.icache.demandMisses::total             432                       # number of demand (read+write) misses (Count)
system.cpu.icache.overallMisses::cpu.inst          432                       # number of overall misses (Count)
system.cpu.icache.overallMisses::total            432                       # number of overall misses (Count)
system.cpu.icache.demandMissLatency::cpu.inst     28129498                       # number of demand (read+write) miss ticks (Tick)
system.cpu.icache.demandMissLatency::total     28129498                       # number of demand (read+write) miss ticks (Tick)
system.cpu.icache.overallMissLatency::cpu.inst     28129498                       # number of overall miss ticks (Tick)
system.cpu.icache.overallMissLatency::total     28129498                       # number of overall miss ticks (Tick)
system.cpu.icache.demandAccesses::cpu.inst      2489474                       # number of demand (read+write) accesses (Count)
system.cpu.icache.demandAccesses::total       2489474                       # number of demand (read+write) accesses (Count)
system.cpu.icache.overallAccesses::cpu.inst      2489474                       # number of overall (read+write) accesses (Count)
system.cpu.icache.overallAccesses::total      2489474                       # number of overall (read+write) accesses (Count)
system.cpu.icache.demandMissRate::cpu.inst     0.000174                       # miss rate for demand accesses (Ratio)
system.cpu.icache.demandMissRate::total      0.000174                       # miss rate for demand accesses (Ratio)
system.cpu.icache.overallMissRate::cpu.inst     0.000174                       # miss rate for overall accesses (Ratio)
system.cpu.icache.overallMissRate::total     0.000174                       # miss rate for overall accesses (Ratio)
system.cpu.icache.demandAvgMissLatency::cpu.inst 65114.578704                       # average overall miss latency in ticks ((Tick/Count))
system.cpu.icache.demandAvgMissLatency::total 65114.578704                       # average overall miss latency in ticks ((Tick/Count))
system.cpu.icache.overallAvgMissLatency::cpu.inst 65114.578704                       # average overall miss latency ((Tick/Count))
system.cpu.icache.overallAvgMissLatency::total 65114.578704                       # average overall miss latency ((Tick/Count))
system.cpu.icache.blockedCycles::no_mshrs          490                       # number of cycles access was blocked (Cycle)
system.cpu.icache.blockedCycles::no_targets            0                       # number of cycles access was blocked (Cycle)
system.cpu.icache.blockedCauses::no_mshrs           12                       # number of times access was blocked (Count)
system.cpu.icache.blockedCauses::no_targets            0                       # number of times access was blocked (Count)
system.cpu.icache.avgBlocked::no_mshrs      40.833333                       # average number of cycles each access was blocked ((Cycle/Count))
system.cpu.icache.avgBlocked::no_targets          nan                       # average number of cycles each access was blocked ((Cycle/Count))
system.cpu.icache.demandMshrHits::cpu.inst           91                       # number of demand (read+write) MSHR hits (Count)
system.cpu.icache.demandMshrHits::total            91                       # number of demand (read+write) MSHR hits (Count)
system.cpu.icache.overallMshrHits::cpu.inst           91                       # number of overall MSHR hits (Count)
system.cpu.icache.overallMshrHits::total           91                       # number of overall MSHR hits (Count)
system.cpu.icache.demandMshrMisses::cpu.inst          341                       # number of demand (read+write) MSHR misses (Count)
system.cpu.icache.demandMshrMisses::total          341                       # number of demand (read+write) MSHR misses (Count)
system.cpu.icache.overallMshrMisses::cpu.inst          341                       # number of overall MSHR misses (Count)
system.cpu.icache.overallMshrMisses::total          341                       # number of overall MSHR misses (Count)
system.cpu.icache.demandMshrMissLatency::cpu.inst     23164998                       # number of demand (read+write) MSHR miss ticks (Tick)
system.cpu.icache.demandMshrMissLatency::total     23164998                       # number of demand (read+write) MSHR miss ticks (Tick)
system.cpu.icache.overallMshrMissLatency::cpu.inst     23164998                       # number of overall MSHR miss ticks (Tick)
system.cpu.icache.overallMshrMissLatency::total     23164998                       # number of overall MSHR miss ticks (Tick)
system.cpu.icache.demandMshrMissRate::cpu.inst     0.000137                       # mshr miss ratio for demand accesses (Ratio)
system.cpu.icache.demandMshrMissRate::total     0.000137                       # mshr miss ratio for demand accesses (Ratio)
system.cpu.icache.overallMshrMissRate::cpu.inst     0.000137                       # mshr miss ratio for overall accesses (Ratio)
system.cpu.icache.overallMshrMissRate::total     0.000137                       # mshr miss ratio for overall accesses (Ratio)
system.cpu.icache.demandAvgMshrMissLatency::cpu.inst 67932.545455                       # average overall mshr miss latency ((Tick/Count))
system.cpu.icache.demandAvgMshrMissLatency::total 67932.545455                       # average overall mshr miss latency ((Tick/Count))
system.cpu.icache.overallAvgMshrMissLatency::cpu.inst 67932.545455                       # average overall mshr miss latency ((Tick/Count))
system.cpu.icache.overallAvgMshrMissLatency::total 67932.545455                       # average overall mshr miss latency ((Tick/Count))
system.cpu.icache.replacements                     52                       # number of replacements (Count)
system.cpu.icache.ReadReq.hits::cpu.inst      2489042                       # number of ReadReq hits (Count)
system.cpu.icache.ReadReq.hits::total         2489042                       # number of ReadReq hits (Count)
system.cpu.icache.ReadReq.misses::cpu.inst          432                       # number of ReadReq misses (Count)
system.cpu.icache.ReadReq.misses::total           432                       # number of ReadReq misses (Count)
system.cpu.icache.ReadReq.missLatency::cpu.inst     28129498                       # number of ReadReq miss ticks (Tick)
system.cpu.icache.ReadReq.missLatency::total     28129498                       # number of ReadReq miss ticks (Tick)
system.cpu.icache.ReadReq.accesses::cpu.inst      2489474                       # number of ReadReq accesses(hits+misses) (Count)
system.cpu.icache.ReadReq.accesses::total      2489474                       # number of ReadReq accesses(hits+misses) (Count)
system.cpu.icache.ReadReq.missRate::cpu.inst     0.000174                       # miss rate for ReadReq accesses (Ratio)
system.cpu.icache.ReadReq.missRate::total     0.000174                       # miss rate for ReadReq accesses (Ratio)
system.cpu.icache.ReadReq.avgMissLatency::cpu.inst 65114.578704                       # average ReadReq miss latency ((Tick/Count))
system.cpu.icache.ReadReq.avgMissLatency::total 65114.578704                       # average ReadReq miss latency ((Tick/Count))
system.cpu.icache.ReadReq.mshrHits::cpu.inst           91                       # number of ReadReq MSHR hits (Count)
system.cpu.icache.ReadReq.mshrHits::total           91                       # number of ReadReq MSHR hits (Count)
system.cpu.icache.ReadReq.mshrMisses::cpu.inst          341                       # number of ReadReq MSHR misses (Count)
system.cpu.icache.ReadReq.mshrMisses::total          341                       # number of ReadReq MSHR misses (Count)
system.cpu.icache.ReadReq.mshrMissLatency::cpu.inst     23164998                       # number of ReadReq MSHR miss ticks (Tick)
system.cpu.icache.ReadReq.mshrMissLatency::total     23164998                       # number of ReadReq MSHR miss ticks (Tick)
system.cpu.icache.ReadReq.mshrMissRate::cpu.inst     0.000137                       # mshr miss rate for ReadReq accesses (Ratio)
system.cpu.icache.ReadReq.mshrMissRate::total     0.000137                       # mshr miss rate for ReadReq accesses (Ratio)
system.cpu.icache.ReadReq.avgMshrMissLatency::cpu.inst 67932.545455                       # average ReadReq mshr miss latency ((Tick/Count))
system.cpu.icache.ReadReq.avgMshrMissLatency::total 67932.545455                       # average ReadReq mshr miss latency ((Tick/Count))
system.cpu.icache.power_state.pwrStateResidencyTicks::UNDEFINED   3142576000                       # Cumulative time (in ticks) in various power states (Tick)
system.cpu.icache.tags.tagsInUse           287.633411                       # Average ticks per tags in use ((Tick/Count))
system.cpu.icache.tags.totalRefs              2489383                       # Total number of references to valid blocks. (Count)
system.cpu.icache.tags.sampledRefs                341                       # Sample count of references to valid blocks. (Count)
system.cpu.icache.tags.avgRefs            7300.243402                       # Average number of references to valid blocks. ((Count/Count))
system.cpu.icache.tags.warmupTick               81500                       # The tick when the warmup percentage was hit. (Tick)
system.cpu.icache.tags.occupancies::cpu.inst   287.633411                       # Average occupied blocks per tick, per requestor ((Count/Tick))
system.cpu.icache.tags.avgOccs::cpu.inst     0.561784                       # Average percentage of cache occupancy ((Ratio/Tick))
system.cpu.icache.tags.avgOccs::total        0.561784                       # Average percentage of cache occupancy ((Ratio/Tick))
system.cpu.icache.tags.occupanciesTaskId::1024          289                       # Occupied blocks per task id (Count)
system.cpu.icache.tags.ageTaskId_1024::3          289                       # Occupied blocks per task id, per block age (Count)
system.cpu.icache.tags.ratioOccsTaskId::1024     0.564453                       # Ratio of occupied blocks and all blocks, per task id (Ratio)
system.cpu.icache.tags.tagAccesses            4979289                       # Number of tag accesses (Count)
system.cpu.icache.tags.dataAccesses           4979289                       # Number of data accesses (Count)
system.cpu.icache.tags.power_state.pwrStateResidencyTicks::UNDEFINED   3142576000                       # Cumulative time (in ticks) in various power states (Tick)
system.cpu.iew.idleCycles                           0                       # Number of cycles IEW is idle (Cycle)
system.cpu.iew.squashCycles                    153095                       # Number of cycles IEW is squashing (Cycle)
system.cpu.iew.blockCycles                     408475                       # Number of cycles IEW is blocking (Cycle)
system.cpu.iew.unblockCycles                       15                       # Number of cycles IEW is unblocking (Cycle)
system.cpu.iew.dispatchedInsts               15874891                       # Number of instructions dispatched to IQ (Count)
system.cpu.iew.dispSquashedInsts                 3318                       # Number of squashed instructions skipped by dispatch (Count)
system.cpu.iew.dispLoadInsts                  1371107                       # Number of dispatched load instructions (Count)
system.cpu.iew.dispStoreInsts                 1353575                       # Number of dispatched store instructions (Count)
system.cpu.iew.dispNonSpecInsts                    72                       # Number of dispatched non-speculative instructions (Count)
system.cpu.iew.iqFullEvents                        12                       # Number of times the IQ has become full, causing a stall (Count)
system.cpu.iew.lsqFullEvents                        0                       # Number of times the LSQ has become full, causing a stall (Count)
system.cpu.iew.memOrderViolationEvents            202                       # Number of memory order violations (Count)
system.cpu.iew.predictedTakenIncorrect         136263                       # Number of branches that were predicted taken incorrectly (Count)
system.cpu.iew.predictedNotTakenIncorrect        26616                       # Number of branches that were predicted not taken incorrectly (Count)
system.cpu.iew.branchMispredicts               162879                       # Number of branch mispredicts detected at execute (Count)
system.cpu.iew.instsToCommit                 13236590                       # Cumulative count of insts sent to commit (Count)
system.cpu.iew.writebackCount                13224632                       # Cumulative count of insts written-back (Count)
system.cpu.iew.producerInst                   8643053                       # Number of instructions producing a value (Count)
system.cpu.iew.consumerInst                  24902724                       # Number of instructions consuming a value (Count)
system.cpu.iew.wbRate                        2.104107                       # Insts written-back per cycle ((Count/Cycle))
system.cpu.iew.wbFanout                      0.347073                       # Average fanout of values written-back ((Count/Count))
system.cpu.lsq0.forwLoads                      109638                       # Number of loads that had data forwarded from stores (Count)
system.cpu.lsq0.squashedLoads                  323930                       # Number of loads squashed (Count)
system.cpu.lsq0.ignoredResponses                   77                       # Number of memory responses ignored because the instruction is squashed (Count)
system.cpu.lsq0.memOrderViolation                 202                       # Number of memory ordering violations (Count)
system.cpu.lsq0.squashedStores                 252533                       # Number of stores squashed (Count)
system.cpu.lsq0.rescheduledLoads               200506                       # Number of loads that were rescheduled (Count)
system.cpu.lsq0.blockedByCache                      7                       # Number of times an access to memory failed due to the cache being blocked (Count)
system.cpu.lsq0.loadToUse::samples            1047175                       # Distribution of cycle latency between the first time a load is issued and its completion (Unspecified)
system.cpu.lsq0.loadToUse::mean              3.506746                       # Distribution of cycle latency between the first time a load is issued and its completion (Unspecified)
system.cpu.lsq0.loadToUse::stdev             1.805115                       # Distribution of cycle latency between the first time a load is issued and its completion (Unspecified)
system.cpu.lsq0.loadToUse::0-9                1046256     99.91%     99.91% # Distribution of cycle latency between the first time a load is issued and its completion (Unspecified)
system.cpu.lsq0.loadToUse::10-19                  800      0.08%     99.99% # Distribution of cycle latency between the first time a load is issued and its completion (Unspecified)
system.cpu.lsq0.loadToUse::20-29                    9      0.00%     99.99% # Distribution of cycle latency between the first time a load is issued and its completion (Unspecified)
system.cpu.lsq0.loadToUse::30-39                    1      0.00%     99.99% # Distribution of cycle latency between the first time a load is issued and its completion (Unspecified)
system.cpu.lsq0.loadToUse::40-49                    1      0.00%     99.99% # Distribution of cycle latency between the first time a load is issued and its completion (Unspecified)
system.cpu.lsq0.loadToUse::50-59                    1      0.00%     99.99% # Distribution of cycle latency between the first time a load is issued and its completion (Unspecified)
system.cpu.lsq0.loadToUse::80-89                    1      0.00%     99.99% # Distribution of cycle latency between the first time a load is issued and its completion (Unspecified)
system.cpu.lsq0.loadToUse::90-99                    1      0.00%     99.99% # Distribution of cycle latency between the first time a load is issued and its completion (Unspecified)
system.cpu.lsq0.loadToUse::100-109                  4      0.00%     99.99% # Distribution of cycle latency between the first time a load is issued and its completion (Unspecified)
system.cpu.lsq0.loadToUse::110-119                  4      0.00%     99.99% # Distribution of cycle latency between the first time a load is issued and its completion (Unspecified)
system.cpu.lsq0.loadToUse::120-129                 11      0.00%     99.99% # Distribution of cycle latency between the first time a load is issued and its completion (Unspecified)
system.cpu.lsq0.loadToUse::130-139                 40      0.00%    100.00% # Distribution of cycle latency between the first time a load is issued and its completion (Unspecified)
system.cpu.lsq0.loadToUse::140-149                 14      0.00%    100.00% # Distribution of cycle latency between the first time a load is issued and its completion (Unspecified)
system.cpu.lsq0.loadToUse::150-159                  3      0.00%    100.00% # Distribution of cycle latency between the first time a load is issued and its completion (Unspecified)
system.cpu.lsq0.loadToUse::160-169                 16      0.00%    100.00% # Distribution of cycle latency between the first time a load is issued and its completion (Unspecified)
system.cpu.lsq0.loadToUse::170-179                  3      0.00%    100.00% # Distribution of cycle latency between the first time a load is issued and its completion (Unspecified)
system.cpu.lsq0.loadToUse::180-189                  5      0.00%    100.00% # Distribution of cycle latency between the first time a load is issued and its completion (Unspecified)
system.cpu.lsq0.loadToUse::190-199                  5      0.00%    100.00% # Distribution of cycle latency between the first time a load is issued and its completion (Unspecified)
system.cpu.lsq0.loadToUse::min_value                1                       # Distribution of cycle latency between the first time a load is issued and its completion (Unspecified)
system.cpu.lsq0.loadToUse::max_value              199                       # Distribution of cycle latency between the first time a load is issued and its completion (Unspecified)
system.cpu.lsq0.loadToUse::total              1047175                       # Distribution of cycle latency between the first time a load is issued and its completion (Unspecified)
system.cpu.mmu.alignFaults                          0                       # Number of MMU faults due to alignment restrictions (Count)
[...]
system.mem_ctrl.dram.perBankRdBursts::6           256                       # Per bank write bursts (Count)
system.mem_ctrl.dram.perBankRdBursts::7           259                       # Per bank write bursts (Count)
system.mem_ctrl.dram.perBankRdBursts::8           269                       # Per bank write bursts (Count)
system.mem_ctrl.dram.perBankRdBursts::9           321                       # Per bank write bursts (Count)
system.mem_ctrl.dram.perBankRdBursts::10          282                       # Per bank write bursts (Count)
system.mem_ctrl.dram.perBankRdBursts::11          275                       # Per bank write bursts (Count)
system.mem_ctrl.dram.perBankRdBursts::12          260                       # Per bank write bursts (Count)
system.mem_ctrl.dram.perBankRdBursts::13          287                       # Per bank write bursts (Count)
system.mem_ctrl.dram.perBankRdBursts::14          270                       # Per bank write bursts (Count)
system.mem_ctrl.dram.perBankRdBursts::15          260                       # Per bank write bursts (Count)
system.mem_ctrl.dram.perBankRdBursts::16          256                       # Per bank write bursts (Count)
system.mem_ctrl.dram.perBankRdBursts::17          256                       # Per bank write bursts (Count)
system.mem_ctrl.dram.perBankRdBursts::18          260                       # Per bank write bursts (Count)
system.mem_ctrl.dram.perBankRdBursts::19          257                       # Per bank write bursts (Count)
system.mem_ctrl.dram.perBankRdBursts::20          263                       # Per bank write bursts (Count)
system.mem_ctrl.dram.perBankRdBursts::21          256                       # Per bank write bursts (Count)
system.mem_ctrl.dram.perBankRdBursts::22          256                       # Per bank write bursts (Count)
system.mem_ctrl.dram.perBankRdBursts::23          256                       # Per bank write bursts (Count)
system.mem_ctrl.dram.perBankRdBursts::24          256                       # Per bank write bursts (Count)
system.mem_ctrl.dram.perBankRdBursts::25          174                       # Per bank write bursts (Count)
system.mem_ctrl.dram.perBankRdBursts::26          131                       # Per bank write bursts (Count)
system.mem_ctrl.dram.perBankRdBursts::27          129                       # Per bank write bursts (Count)
system.mem_ctrl.dram.perBankRdBursts::28          128                       # Per bank write bursts (Count)
system.mem_ctrl.dram.perBankRdBursts::29          164                       # Per bank write bursts (Count)
system.mem_ctrl.dram.perBankRdBursts::30          142                       # Per bank write bursts (Count)
system.mem_ctrl.dram.perBankRdBursts::31          151                       # Per bank write bursts (Count)
system.mem_ctrl.dram.perBankWrBursts::0            10                       # Per bank write bursts (Count)
system.mem_ctrl.dram.perBankWrBursts::1             2                       # Per bank write bursts (Count)
system.mem_ctrl.dram.perBankWrBursts::2            65                       # Per bank write bursts (Count)
system.mem_ctrl.dram.perBankWrBursts::3             2                       # Per bank write bursts (Count)
system.mem_ctrl.dram.perBankWrBursts::4           128                       # Per bank write bursts (Count)
system.mem_ctrl.dram.perBankWrBursts::5           128                       # Per bank write bursts (Count)
system.mem_ctrl.dram.perBankWrBursts::6           128                       # Per bank write bursts (Count)
system.mem_ctrl.dram.perBankWrBursts::7           128                       # Per bank write bursts (Count)
system.mem_ctrl.dram.perBankWrBursts::8           128                       # Per bank write bursts (Count)
system.mem_ctrl.dram.perBankWrBursts::9           128                       # Per bank write bursts (Count)
system.mem_ctrl.dram.perBankWrBursts::10          128                       # Per bank write bursts (Count)
system.mem_ctrl.dram.perBankWrBursts::11          128                       # Per bank write bursts (Count)
system.mem_ctrl.dram.perBankWrBursts::12          128                       # Per bank write bursts (Count)
system.mem_ctrl.dram.perBankWrBursts::13          128                       # Per bank write bursts (Count)
system.mem_ctrl.dram.perBankWrBursts::14          128                       # Per bank write bursts (Count)
system.mem_ctrl.dram.perBankWrBursts::15          128                       # Per bank write bursts (Count)
system.mem_ctrl.dram.perBankWrBursts::16          128                       # Per bank write bursts (Count)
system.mem_ctrl.dram.perBankWrBursts::17          128                       # Per bank write bursts (Count)
system.mem_ctrl.dram.perBankWrBursts::18          128                       # Per bank write bursts (Count)
system.mem_ctrl.dram.perBankWrBursts::19          128                       # Per bank write bursts (Count)
system.mem_ctrl.dram.perBankWrBursts::20          128                       # Per bank write bursts (Count)
system.mem_ctrl.dram.perBankWrBursts::21          128                       # Per bank write bursts (Count)
system.mem_ctrl.dram.perBankWrBursts::22          128                       # Per bank write bursts (Count)
system.mem_ctrl.dram.perBankWrBursts::23          128                       # Per bank write bursts (Count)
system.mem_ctrl.dram.perBankWrBursts::24           97                       # Per bank write bursts (Count)
system.mem_ctrl.dram.perBankWrBursts::25           16                       # Per bank write bursts (Count)
system.mem_ctrl.dram.perBankWrBursts::26            0                       # Per bank write bursts (Count)
system.mem_ctrl.dram.perBankWrBursts::27            0                       # Per bank write bursts (Count)
system.mem_ctrl.dram.perBankWrBursts::28            0                       # Per bank write bursts (Count)
system.mem_ctrl.dram.perBankWrBursts::29           29                       # Per bank write bursts (Count)
system.mem_ctrl.dram.perBankWrBursts::30           13                       # Per bank write bursts (Count)
system.mem_ctrl.dram.perBankWrBursts::31           10                       # Per bank write bursts (Count)
system.mem_ctrl.dram.totQLat                 79274332                       # Total ticks spent queuing (Tick)
system.mem_ctrl.dram.totBusLat               24473540                       # Total ticks spent in databus transfers (Tick)
system.mem_ctrl.dram.totMemAccLat           207753072                       # Total ticks spent from burst creation until serviced by the DRAM (Tick)
system.mem_ctrl.dram.avgQLat                 10792.97                       # Average queueing delay per DRAM burst ((Tick/Count))
system.mem_ctrl.dram.avgBusLat                3332.00                       # Average bus latency per DRAM burst ((Tick/Count))
system.mem_ctrl.dram.avgMemAccLat            28284.97                       # Average memory access latency per DRAM burst ((Tick/Count))
system.mem_ctrl.dram.readRowHits                 6503                       # Number of row buffer hits during reads (Count)
system.mem_ctrl.dram.writeRowHits                2473                       # Number of row buffer hits during writes (Count)
system.mem_ctrl.dram.readRowHitRate             88.54                       # Row buffer hit rate for reads (Ratio)
system.mem_ctrl.dram.writeRowHitRate            88.20                       # Row buffer hit rate for writes (Ratio)
system.mem_ctrl.dram.bytesPerActivate::samples         1172                       # Bytes accessed per row activation (Byte)
system.mem_ctrl.dram.bytesPerActivate::mean   553.610922                       # Bytes accessed per row activation (Byte)
system.mem_ctrl.dram.bytesPerActivate::gmean   382.646814                       # Bytes accessed per row activation (Byte)
system.mem_ctrl.dram.bytesPerActivate::stdev   369.254349                       # Bytes accessed per row activation (Byte)
system.mem_ctrl.dram.bytesPerActivate::0-127          168     14.33%     14.33% # Bytes accessed per row activation (Byte)
system.mem_ctrl.dram.bytesPerActivate::128-255          194     16.55%     30.89% # Bytes accessed per row activation (Byte)
system.mem_ctrl.dram.bytesPerActivate::256-383           67      5.72%     36.60% # Bytes accessed per row activation (Byte)
system.mem_ctrl.dram.bytesPerActivate::384-511          127     10.84%     47.44% # Bytes accessed per row activation (Byte)
system.mem_ctrl.dram.bytesPerActivate::512-639           85      7.25%     54.69% # Bytes accessed per row activation (Byte)
system.mem_ctrl.dram.bytesPerActivate::640-767          115      9.81%     64.51% # Bytes accessed per row activation (Byte)
system.mem_ctrl.dram.bytesPerActivate::768-895           41      3.50%     68.00% # Bytes accessed per row activation (Byte)
system.mem_ctrl.dram.bytesPerActivate::896-1023           93      7.94%     75.94% # Bytes accessed per row activation (Byte)
system.mem_ctrl.dram.bytesPerActivate::1024-1151          282     24.06%    100.00% # Bytes accessed per row activation (Byte)
system.mem_ctrl.dram.bytesPerActivate::total         1172                       # Bytes accessed per row activation (Byte)
system.mem_ctrl.dram.bytesRead                 470080                       # Total bytes read (Byte)
system.mem_ctrl.dram.bytesWritten              179456                       # Total bytes written (Byte)
system.mem_ctrl.dram.avgRdBW               149.584290                       # Average DRAM read bandwidth in MiBytes/s ((Byte/Second))
system.mem_ctrl.dram.avgWrBW                57.104745                       # Average DRAM write bandwidth in MiBytes/s ((Byte/Second))
system.mem_ctrl.dram.peakBW                  19207.00                       # Theoretical peak bandwidth in MiByte/s ((Byte/Second))
system.mem_ctrl.dram.busUtil                     1.08                       # Data bus utilization in percentage (Ratio)
system.mem_ctrl.dram.busUtilRead                 0.78                       # Data bus utilization in percentage for reads (Ratio)
system.mem_ctrl.dram.busUtilWrite                0.30                       # Data bus utilization in percentage for writes (Ratio)
system.mem_ctrl.dram.pageHitRate                88.44                       # Row buffer hit rate, read and write combined (Ratio)
system.mem_ctrl.dram.power_state.pwrStateResidencyTicks::UNDEFINED   3142576000                       # Cumulative time (in ticks) in various power states (Tick)
system.mem_ctrl.dram.rank0.actEnergy     1992882.528000                       # Energy for activate commands per rank (pJ) (Joule)
system.mem_ctrl.dram.rank0.preEnergy     2649511.771200                       # Energy for precharge commands per rank (pJ) (Joule)
system.mem_ctrl.dram.rank0.readEnergy    16867330.368000                       # Energy for read commands per rank (pJ) (Joule)
system.mem_ctrl.dram.rank0.writeEnergy   6069971.040000                       # Energy for write commands per rank (pJ) (Joule)
system.mem_ctrl.dram.rank0.refreshEnergy 558307183.761603                       # Energy for refresh commands per rank (pJ) (Joule)
system.mem_ctrl.dram.rank0.actBackEnergy 1469638337.428799                       # Energy for active background per rank (pJ) (Joule)
system.mem_ctrl.dram.rank0.preBackEnergy 922260388.224005                       # Energy for precharge background per rank (pJ) (Joule)
system.mem_ctrl.dram.rank0.actPowerDownEnergy            0                       # Energy for active power-down per rank (pJ) (Joule)
system.mem_ctrl.dram.rank0.prePowerDownEnergy            0                       # Energy for precharge power-down per rank (pJ) (Joule)
system.mem_ctrl.dram.rank0.selfRefreshEnergy            0                       # Energy for self refresh per rank (pJ) (Joule)
system.mem_ctrl.dram.rank0.totalEnergy   2977785605.121602                       # Total energy per rank (pJ) (Joule)
system.mem_ctrl.dram.rank0.averagePower    947.562002                       # Core power per rank (mW) (Watt)
system.mem_ctrl.dram.rank0.totalIdleTime            0                       # Total Idle time Per DRAM Rank (Tick)
system.mem_ctrl.dram.rank0.pwrStateTime::IDLE   1402350272                       # Time in different power states (Tick)
system.mem_ctrl.dram.rank0.pwrStateTime::REF    141050000                       # Time in different power states (Tick)
system.mem_ctrl.dram.rank0.pwrStateTime::SREF            0                       # Time in different power states (Tick)
system.mem_ctrl.dram.rank0.pwrStateTime::PRE_PDN            0                       # Time in different power states (Tick)
system.mem_ctrl.dram.rank0.pwrStateTime::ACT   1599175728                       # Time in different power states (Tick)
system.mem_ctrl.dram.rank0.pwrStateTime::ACT_PDN            0                       # Time in different power states (Tick)
system.mem_ctrl.dram.rank1.actEnergy     1665413.568000                       # Energy for activate commands per rank (pJ) (Joule)
system.mem_ctrl.dram.rank1.preEnergy     2209999.646400                       # Energy for precharge commands per rank (pJ) (Joule)
system.mem_ctrl.dram.rank1.readEnergy    14028066.528000                       # Energy for read commands per rank (pJ) (Joule)
system.mem_ctrl.dram.rank1.writeEnergy   4468851.744000                       # Energy for write commands per rank (pJ) (Joule)
system.mem_ctrl.dram.rank1.refreshEnergy 558307183.761603                       # Energy for refresh commands per rank (pJ) (Joule)
system.mem_ctrl.dram.rank1.actBackEnergy 1285183984.694404                       # Energy for active background per rank (pJ) (Joule)
system.mem_ctrl.dram.rank1.preBackEnergy 1063988026.483205                       # Energy for precharge background per rank (pJ) (Joule)
system.mem_ctrl.dram.rank1.actPowerDownEnergy            0                       # Energy for active power-down per rank (pJ) (Joule)
system.mem_ctrl.dram.rank1.prePowerDownEnergy            0                       # Energy for precharge power-down per rank (pJ) (Joule)
system.mem_ctrl.dram.rank1.selfRefreshEnergy            0                       # Energy for self refresh per rank (pJ) (Joule)
system.mem_ctrl.dram.rank1.totalEnergy   2929851526.425603                       # Total energy per rank (pJ) (Joule)
system.mem_ctrl.dram.rank1.averagePower    932.308885                       # Core power per rank (mW) (Watt)
system.mem_ctrl.dram.rank1.totalIdleTime            0                       # Total Idle time Per DRAM Rank (Tick)
system.mem_ctrl.dram.rank1.pwrStateTime::IDLE   1619476808                       # Time in different power states (Tick)
system.mem_ctrl.dram.rank1.pwrStateTime::REF    141050000                       # Time in different power states (Tick)
system.mem_ctrl.dram.rank1.pwrStateTime::SREF            0                       # Time in different power states (Tick)
system.mem_ctrl.dram.rank1.pwrStateTime::PRE_PDN            0                       # Time in different power states (Tick)
system.mem_ctrl.dram.rank1.pwrStateTime::ACT   1382049192                       # Time in different power states (Tick)
system.mem_ctrl.dram.rank1.pwrStateTime::ACT_PDN            0                       # Time in different power states (Tick)
system.mem_ctrl.power_state.pwrStateResidencyTicks::UNDEFINED   3142576000                       # Cumulative time (in ticks) in various power states (Tick)
system.membus.transDist::ReadResp                 399                       # Transaction distribution (Count)
system.membus.transDist::WritebackDirty          2865                       # Transaction distribution (Count)
system.membus.transDist::CleanEvict                93                       # Transaction distribution (Count)
system.membus.transDist::ReadExReq               6946                       # Transaction distribution (Count)
system.membus.transDist::ReadExResp              6946                       # Transaction distribution (Count)
system.membus.transDist::ReadSharedReq            399                       # Transaction distribution (Count)
system.membus.pktCount_system.l2cache.mem_side_port::system.mem_ctrl.port        17648                       # Packet count per connected requestor and responder (Count)
system.membus.pktCount::total                   17648                       # Packet count per connected requestor and responder (Count)
system.membus.pktSize_system.l2cache.mem_side_port::system.mem_ctrl.port       653440                       # Cumulative packet size per connected requestor and responder (Byte)
system.membus.pktSize::total                   653440                       # Cumulative packet size per connected requestor and responder (Byte)
system.membus.snoops                                0                       # Total snoops (Count)
system.membus.snoopTraffic                          0                       # Total snoop traffic (Byte)
system.membus.snoopFanout::samples               7345                       # Request fanout histogram (Count)
system.membus.snoopFanout::mean                     0                       # Request fanout histogram (Count)
system.membus.snoopFanout::stdev                    0                       # Request fanout histogram (Count)
system.membus.snoopFanout::underflows               0      0.00%      0.00% # Request fanout histogram (Count)
system.membus.snoopFanout::0                     7345    100.00%    100.00% # Request fanout histogram (Count)
system.membus.snoopFanout::1                        0      0.00%    100.00% # Request fanout histogram (Count)
system.membus.snoopFanout::overflows                0      0.00%    100.00% # Request fanout histogram (Count)
system.membus.snoopFanout::min_value                0                       # Request fanout histogram (Count)
system.membus.snoopFanout::max_value                0                       # Request fanout histogram (Count)
system.membus.snoopFanout::total                 7345                       # Request fanout histogram (Count)
system.membus.power_state.pwrStateResidencyTicks::UNDEFINED   3142576000                       # Cumulative time (in ticks) in various power states (Tick)
system.membus.reqLayer0.occupancy            10881500                       # Layer occupancy (ticks) (Tick)
system.membus.reqLayer0.utilization               0.0                       # Layer utilization (Ratio)
system.membus.respLayer0.occupancy           18660428                       # Layer occupancy (ticks) (Tick)
system.membus.respLayer0.utilization              0.0                       # Layer utilization (Ratio)
system.membus.snoop_filter.totRequests          10303                       # Total number of requests made to the snoop filter. (Count)
system.membus.snoop_filter.hitSingleRequests         2958                       # Number of requests hitting in the snoop filter with a single holder of the requested data. (Count)
system.membus.snoop_filter.hitMultiRequests            0                       # Number of requests hitting in the snoop filter with multiple (>1) holders of the requested data. (Count)
system.membus.snoop_filter.totSnoops                0                       # Total number of snoops made to the snoop filter. (Count)
system.membus.snoop_filter.hitSingleSnoops            0                       # Number of snoops hitting in the snoop filter with a single holder of the requested data. (Count)
system.membus.snoop_filter.hitMultiSnoops            0                       # Number of snoops hitting in the snoop filter with multiple (>1) holders of the requested data. (Count)
system.workload.inst.arm                            0                       # number of arm instructions executed (Count)
system.workload.inst.quiesce                        0                       # number of quiesce instructions executed (Count)

---------- End Simulation Statistics   ----------
