
---------- Begin Simulation Statistics ----------
simSeconds                                   0.000034                       # Number of seconds simulated (Second)
simTicks                                     33928500                       # Number of ticks simulated (Tick)
finalTick                                    33928500                       # Number of ticks from beginning of simulation (restored from checkpoints and never reset) (Tick)
simFreq                                  1000000000000                       # The number of ticks per simulated second ((Tick/Second))
hostSeconds                                      0.02                       # Real time elapsed on the host (Second)
hostTickRate                               1582450801                       # The number of ticks simulated per host second (ticks/s) ((Tick/Second))
hostMemory                                    2233160                       # Number of bytes of host memory used (Byte)
simInsts                                         4988                       # Number of instructions simulated (Count)
simOps                                           5770                       # Number of ops (including micro ops) simulated (Count)
hostInstRate                                   231097                       # Simulator instruction rate (inst/s) ((Count/Second))
hostOpRate                                     267106                       # Simulator op (including micro ops) rate (op/s) ((Count/Second))
system.clk_domain.clock                           500                       # Clock period in ticks (Tick)
system.clk_domain.voltage_domain.voltage            1                       # Voltage in Volts (Volt)
system.cpu.numCycles                            67857                       # Number of cpu cycles simulated (Cycle)
system.cpu.numWorkItemsStarted                      0                       # Number of work items this cpu started (Count)
system.cpu.numWorkItemsCompleted                    0                       # Number of work items this cpu completed (Count)
system.cpu.dcache.demandHits::cpu.data           1833                       # number of demand (read+write) hits (Count)
system.cpu.dcache.demandHits::total              1833                       # number of demand (read+write) hits (Count)
system.cpu.dcache.overallHits::cpu.data          1833                       # number of overall hits (Count)
system.cpu.dcache.overallHits::total             1833                       # number of overall hits (Count)
system.cpu.dcache.demandMisses::cpu.data          142                       # number of demand (read+write) misses (Count)
system.cpu.dcache.demandMisses::total             142                       # number of demand (read+write) misses (Count)
system.cpu.dcache.overallMisses::cpu.data          142                       # number of overall misses (Count)
system.cpu.dcache.overallMisses::total            142                       # number of overall misses (Count)
system.cpu.dcache.demandMissLatency::cpu.data     10594500                       # number of demand (read+write) miss ticks (Tick)
system.cpu.dcache.demandMissLatency::total     10594500                       # number of demand (read+write) miss ticks (Tick)
system.cpu.dcache.overallMissLatency::cpu.data     10594500                       # number of overall miss ticks (Tick)
system.cpu.dcache.overallMissLatency::total     10594500                       # number of overall miss ticks (Tick)
system.cpu.dcache.demandAccesses::cpu.data         1975                       # number of demand (read+write) accesses (Count)
system.cpu.dcache.demandAccesses::total          1975                       # number of demand (read+write) accesses (Count)
system.cpu.dcache.overallAccesses::cpu.data         1975                       # number of overall (read+write) accesses (Count)
system.cpu.dcache.overallAccesses::total         1975                       # number of overall (read+write) accesses (Count)
system.cpu.dcache.demandMissRate::cpu.data     0.071899                       # miss rate for demand accesses (Ratio)
system.cpu.dcache.demandMissRate::total      0.071899                       # miss rate for demand accesses (Ratio)
system.cpu.dcache.overallMissRate::cpu.data     0.071899                       # miss rate for overall accesses (Ratio)
system.cpu.dcache.overallMissRate::total     0.071899                       # miss rate for overall accesses (Ratio)
system.cpu.dcache.demandAvgMissLatency::cpu.data 74609.154930                       # average overall miss latency in ticks ((Tick/Count))
system.cpu.dcache.demandAvgMissLatency::total 74609.154930                       # average overall miss latency in ticks ((Tick/Count))
system.cpu.dcache.overallAvgMissLatency::cpu.data 74609.154930                       # average overall miss latency ((Tick/Count))
system.cpu.dcache.overallAvgMissLatency::total 74609.154930                       # average overall miss latency ((Tick/Count))
system.cpu.dcache.blockedCycles::no_mshrs            0                       # number of cycles access was blocked (Cycle)
system.cpu.dcache.blockedCycles::no_targets            0                       # number of cycles access was blocked (Cycle)
system.cpu.dcache.blockedCauses::no_mshrs            0                       # number of times access was blocked (Count)
system.cpu.dcache.blockedCauses::no_targets            0                       # number of times access was blocked (Count)
system.cpu.dcache.avgBlocked::no_mshrs            nan                       # average number of cycles each access was blocked ((Cycle/Count))
system.cpu.dcache.avgBlocked::no_targets          nan                       # average number of cycles each access was blocked ((Cycle/Count))
system.cpu.dcache.demandMshrMisses::cpu.data          142                       # number of demand (read+write) MSHR misses (Count)
system.cpu.dcache.demandMshrMisses::total          142                       # number of demand (read+write) MSHR misses (Count)
system.cpu.dcache.overallMshrMisses::cpu.data          142                       # number of overall MSHR misses (Count)
system.cpu.dcache.overallMshrMisses::total          142                       # number of overall MSHR misses (Count)
system.cpu.dcache.demandMshrMissLatency::cpu.data     10452500                       # number of demand (read+write) MSHR miss ticks (Tick)
system.cpu.dcache.demandMshrMissLatency::total     10452500                       # number of demand (read+write) MSHR miss ticks (Tick)
system.cpu.dcache.overallMshrMissLatency::cpu.data     10452500                       # number of overall MSHR miss ticks (Tick)
system.cpu.dcache.overallMshrMissLatency::total     10452500                       # number of overall MSHR miss ticks (Tick)
system.cpu.dcache.demandMshrMissRate::cpu.data     0.071899                       # mshr miss ratio for demand accesses (Ratio)
system.cpu.dcache.demandMshrMissRate::total     0.071899                       # mshr miss ratio for demand accesses (Ratio)
system.cpu.dcache.overallMshrMissRate::cpu.data     0.071899                       # mshr miss ratio for overall accesses (Ratio)
system.cpu.dcache.overallMshrMissRate::total     0.071899                       # mshr miss ratio for overall accesses (Ratio)
system.cpu.dcache.demandAvgMshrMissLatency::cpu.data 73609.154930                       # average overall mshr miss latency ((Tick/Count))
system.cpu.dcache.demandAvgMshrMissLatency::total 73609.154930                       # average overall mshr miss latency ((Tick/Count))
system.cpu.dcache.overallAvgMshrMissLatency::cpu.data 73609.154930                       # average overall mshr miss latency ((Tick/Count))
system.cpu.dcache.overallAvgMshrMissLatency::total 73609.154930                       # average overall mshr miss latency ((Tick/Count))
system.cpu.dcache.replacements                      1                       # number of replacements (Count)
system.cpu.dcache.LoadLockedReq.hits::cpu.data           11                       # number of LoadLockedReq hits (Count)
system.cpu.dcache.LoadLockedReq.hits::total           11                       # number of LoadLockedReq hits (Count)
system.cpu.dcache.LoadLockedReq.accesses::cpu.data           11                       # number of LoadLockedReq accesses(hits+misses) (Count)
system.cpu.dcache.LoadLockedReq.accesses::total           11                       # number of LoadLockedReq accesses(hits+misses) (Count)
system.cpu.dcache.ReadReq.hits::cpu.data          951                       # number of ReadReq hits (Count)
system.cpu.dcache.ReadReq.hits::total             951                       # number of ReadReq hits (Count)
system.cpu.dcache.ReadReq.misses::cpu.data           99                       # number of ReadReq misses (Count)
system.cpu.dcache.ReadReq.misses::total            99                       # number of ReadReq misses (Count)
system.cpu.dcache.ReadReq.missLatency::cpu.data      7397500                       # number of ReadReq miss ticks (Tick)
system.cpu.dcache.ReadReq.missLatency::total      7397500                       # number of ReadReq miss ticks (Tick)
system.cpu.dcache.ReadReq.accesses::cpu.data         1050                       # number of ReadReq accesses(hits+misses) (Count)
system.cpu.dcache.ReadReq.accesses::total         1050                       # number of ReadReq accesses(hits+misses) (Count)
system.cpu.dcache.ReadReq.missRate::cpu.data     0.094286                       # miss rate for ReadReq accesses (Ratio)
system.cpu.dcache.ReadReq.missRate::total     0.094286                       # miss rate for ReadReq accesses (Ratio)
system.cpu.dcache.ReadReq.avgMissLatency::cpu.data 74722.222222                       # average ReadReq miss latency ((Tick/Count))
system.cpu.dcache.ReadReq.avgMissLatency::total 74722.222222                       # average ReadReq miss latency ((Tick/Count))
system.cpu.dcache.ReadReq.mshrMisses::cpu.data           99                       # number of ReadReq MSHR misses (Count)
system.cpu.dcache.ReadReq.mshrMisses::total           99                       # number of ReadReq MSHR misses (Count)
system.cpu.dcache.ReadReq.mshrMissLatency::cpu.data      7298500                       # number of ReadReq MSHR miss ticks (Tick)
system.cpu.dcache.ReadReq.mshrMissLatency::total      7298500                       # number of ReadReq MSHR miss ticks (Tick)
system.cpu.dcache.ReadReq.mshrMissRate::cpu.data     0.094286                       # mshr miss rate for ReadReq accesses (Ratio)
system.cpu.dcache.ReadReq.mshrMissRate::total     0.094286                       # mshr miss rate for ReadReq accesses (Ratio)
system.cpu.dcache.ReadReq.avgMshrMissLatency::cpu.data 73722.222222                       # average ReadReq mshr miss latency ((Tick/Count))
system.cpu.dcache.ReadReq.avgMshrMissLatency::total 73722.222222                       # average ReadReq mshr miss latency ((Tick/Count))
system.cpu.dcache.StoreCondReq.hits::cpu.data           11                       # number of StoreCondReq hits (Count)
system.cpu.dcache.StoreCondReq.hits::total           11                       # number of StoreCondReq hits (Count)
system.cpu.dcache.StoreCondReq.accesses::cpu.data           11                       # number of StoreCondReq accesses(hits+misses) (Count)
system.cpu.dcache.StoreCondReq.accesses::total           11                       # number of StoreCondReq accesses(hits+misses) (Count)
system.cpu.dcache.WriteReq.hits::cpu.data          882                       # number of WriteReq hits (Count)
system.cpu.dcache.WriteReq.hits::total            882                       # number of WriteReq hits (Count)
system.cpu.dcache.WriteReq.misses::cpu.data           43                       # number of WriteReq misses (Count)
system.cpu.dcache.WriteReq.misses::total           43                       # number of WriteReq misses (Count)
system.cpu.dcache.WriteReq.missLatency::cpu.data      3197000                       # number of WriteReq miss ticks (Tick)
system.cpu.dcache.WriteReq.missLatency::total      3197000                       # number of WriteReq miss ticks (Tick)
system.cpu.dcache.WriteReq.accesses::cpu.data          925                       # number of WriteReq accesses(hits+misses) (Count)
system.cpu.dcache.WriteReq.accesses::total          925                       # number of WriteReq accesses(hits+misses) (Count)
system.cpu.dcache.WriteReq.missRate::cpu.data     0.046486                       # miss rate for WriteReq accesses (Ratio)
system.cpu.dcache.WriteReq.missRate::total     0.046486                       # miss rate for WriteReq accesses (Ratio)
system.cpu.dcache.WriteReq.avgMissLatency::cpu.data 74348.837209                       # average WriteReq miss latency ((Tick/Count))
system.cpu.dcache.WriteReq.avgMissLatency::total 74348.837209                       # average WriteReq miss latency ((Tick/Count))
system.cpu.dcache.WriteReq.mshrMisses::cpu.data           43                       # number of WriteReq MSHR misses (Count)
system.cpu.dcache.WriteReq.mshrMisses::total           43                       # number of WriteReq MSHR misses (Count)
system.cpu.dcache.WriteReq.mshrMissLatency::cpu.data      3154000                       # number of WriteReq MSHR miss ticks (Tick)
system.cpu.dcache.WriteReq.mshrMissLatency::total      3154000                       # number of WriteReq MSHR miss ticks (Tick)
system.cpu.dcache.WriteReq.mshrMissRate::cpu.data     0.046486                       # mshr miss rate for WriteReq accesses (Ratio)
system.cpu.dcache.WriteReq.mshrMissRate::total     0.046486                       # mshr miss rate for WriteReq accesses (Ratio)
system.cpu.dcache.WriteReq.avgMshrMissLatency::cpu.data 73348.837209                       # average WriteReq mshr miss latency ((Tick/Count))
system.cpu.dcache.WriteReq.avgMshrMissLatency::total 73348.837209                       # average WriteReq mshr miss latency ((Tick/Count))
system.cpu.dcache.power_state.pwrStateResidencyTicks::UNDEFINED     33928500                       # Cumulative time (in ticks) in various power states (Tick)
system.cpu.dcache.tags.tagsInUse            83.169490                       # Average ticks per tags in use ((Tick/Count))
system.cpu.dcache.tags.totalRefs                 1997                       # Total number of references to valid blocks. (Count)
system.cpu.dcache.tags.sampledRefs                142                       # Sample count of references to valid blocks. (Count)
system.cpu.dcache.tags.avgRefs              14.063380                       # Average number of references to valid blocks. ((Count/Count))
system.cpu.dcache.tags.warmupTick              155500                       # The tick when the warmup percentage was hit. (Tick)
system.cpu.dcache.tags.occupancies::cpu.data    83.169490                       # Average occupied blocks per tick, per requestor ((Count/Tick))
system.cpu.dcache.tags.avgOccs::cpu.data     0.162440                       # Average percentage of cache occupancy ((Ratio/Tick))
system.cpu.dcache.tags.avgOccs::total        0.162440                       # Average percentage of cache occupancy ((Ratio/Tick))
system.cpu.dcache.tags.occupanciesTaskId::1024          141                       # Occupied blocks per task id (Count)
system.cpu.dcache.tags.ageTaskId_1024::0           30                       # Occupied blocks per task id, per block age (Count)
system.cpu.dcache.tags.ageTaskId_1024::1          111                       # Occupied blocks per task id, per block age (Count)
system.cpu.dcache.tags.ratioOccsTaskId::1024     0.275391                       # Ratio of occupied blocks and all blocks, per task id (Ratio)
system.cpu.dcache.tags.tagAccesses               4136                       # Number of tag accesses (Count)
system.cpu.dcache.tags.dataAccesses              4136                       # Number of data accesses (Count)
system.cpu.dcache.tags.power_state.pwrStateResidencyTicks::UNDEFINED     33928500                       # Cumulative time (in ticks) in various power states (Tick)
system.cpu.exec_context.thread_0.numInsts         4988                       # Number of instructions committed (Count)
system.cpu.exec_context.thread_0.numOps          5770                       # Number of ops (including micro ops) committed (Count)
system.cpu.exec_context.thread_0.numIntAluAccesses         4980                       # Number of integer alu accesses (Count)
system.cpu.exec_context.thread_0.numFpAluAccesses            0                       # Number of float alu accesses (Count)
system.cpu.exec_context.thread_0.numVecAluAccesses            0                       # Number of vector alu accesses (Count)
system.cpu.exec_context.thread_0.numCallsReturns          215                       # Number of times a function call or return occured (Count)
system.cpu.exec_context.thread_0.numCondCtrlInsts          800                       # Number of instructions that are conditional controls (Count)
system.cpu.exec_context.thread_0.numIntInsts         4980                       # Number of integer instructions (Count)
system.cpu.exec_context.thread_0.numFpInsts            0                       # Number of float instructions (Count)
system.cpu.exec_context.thread_0.numVecInsts            0                       # Number of vector instructions (Count)
system.cpu.exec_context.thread_0.numIntRegReads         5878                       # Number of times the integer registers were read (Count)
system.cpu.exec_context.thread_0.numIntRegWrites         2991                       # Number of times the integer registers were written (Count)
system.cpu.exec_context.thread_0.numFpRegReads            0                       # Number of times the floating registers were read (Count)
system.cpu.exec_context.thread_0.numFpRegWrites            0                       # Number of times the floating registers were written (Count)
system.cpu.exec_context.thread_0.numVecRegReads           16                       # Number of times the vector registers were read (Count)
system.cpu.exec_context.thread_0.numVecRegWrites            0                       # Number of times the vector registers were written (Count)
system.cpu.exec_context.thread_0.numVecPredRegReads            0                       # Number of times the predicate registers were read (Count)
system.cpu.exec_context.thread_0.numVecPredRegWrites            0                       # Number of times the predicate registers were written (Count)
system.cpu.exec_context.thread_0.numCCRegReads        20690                       # Number of times the CC registers were read (Count)
system.cpu.exec_context.thread_0.numCCRegWrites         2647                       # Number of times the CC registers were written (Count)
system.cpu.exec_context.thread_0.numMiscRegReads         2084                       # Number of times the Misc registers were read (Count)
system.cpu.exec_context.thread_0.numMiscRegWrites           23                       # Number of times the Misc registers were written (Count)
system.cpu.exec_context.thread_0.numMemRefs         2038                       # Number of memory refs (Count)
system.cpu.exec_context.thread_0.numLoadInsts         1085                       # Number of load instructions (Count)
system.cpu.exec_context.thread_0.numStoreInsts          953                       # Number of store instructions (Count)
system.cpu.exec_context.thread_0.numIdleCycles     0.002000                       # Number of idle cycles (Cycle)
system.cpu.exec_context.thread_0.numBusyCycles 67856.998000                       # Number of busy cycles (Cycle)
system.cpu.exec_context.thread_0.notIdleFraction     1.000000                       # Percentage of non-idle cycles (Ratio)
system.cpu.exec_context.thread_0.idleFraction     0.000000                       # Percentage of idle cycles (Ratio)
system.cpu.exec_context.thread_0.numBranches         1107                       # Number of branches fetched (Count)
system.cpu.exec_context.thread_0.statExecutedInstType::No_OpClass            0      0.00%      0.00% # Class of executed instruction. (Count)
system.cpu.exec_context.thread_0.statExecutedInstType::IntAlu         3789     64.95%     64.95% # Class of executed instruction. (Count)
system.cpu.exec_context.thread_0.statExecutedInstType::IntMult            4      0.07%     65.02% # Class of executed instruction. (Count)
system.cpu.exec_context.thread_0.statExecutedInstType::IntDiv            0      0.00%     65.02% # Class of executed instruction. (Count)
system.cpu.exec_context.thread_0.statExecutedInstType::FloatAdd            0      0.00%     65.02% # Class of executed instruction. (Count)
system.cpu.exec_context.thread_0.statExecutedInstType::FloatCmp            0      0.00%     65.02% # Class of executed instruction. (Count)
system.cpu.exec_context.thread_0.statExecutedInstType::FloatCvt            0      0.00%     65.02% # Class of executed instruction. (Count)
system.cpu.exec_context.thread_0.statExecutedInstType::FloatMult            0      0.00%     65.02% # Class of executed instruction. (Count)
system.cpu.exec_context.thread_0.statExecutedInstType::FloatMultAcc            0      0.00%     65.02% # Class of executed instruction. (Count)
system.cpu.exec_context.thread_0.statExecutedInstType::FloatDiv            0      0.00%     65.02% # Class of executed instruction. (Count)
system.cpu.exec_context.thread_0.statExecutedInstType::FloatMisc            0      0.00%     65.02% # Class of executed instruction. (Count)
system.cpu.exec_context.thread_0.statExecutedInstType::FloatSqrt            0      0.00%     65.02% # Class of executed instruction. (Count)
system.cpu.exec_context.thread_0.statExecutedInstType::SimdAdd            0      0.00%     65.02% # Class of executed instruction. (Count)
system.cpu.exec_context.thread_0.statExecutedInstType::SimdAddAcc            0      0.00%     65.02% # Class of executed instruction. (Count)
system.cpu.exec_context.thread_0.statExecutedInstType::SimdAlu            0      0.00%     65.02% # Class of executed instruction. (Count)
system.cpu.exec_context.thread_0.statExecutedInstType::SimdCmp            0      0.00%     65.02% # Class of executed instruction. (Count)
system.cpu.exec_context.thread_0.statExecutedInstType::SimdCvt            0      0.00%     65.02% # Class of executed instruction. (Count)
system.cpu.exec_context.thread_0.statExecutedInstType::SimdMisc            0      0.00%     65.02% # Class of executed instruction. (Count)
system.cpu.exec_context.thread_0.statExecutedInstType::SimdMult            0      0.00%     65.02% # Class of executed instruction. (Count)
system.cpu.exec_context.thread_0.statExecutedInstType::SimdMultAcc            0      0.00%     65.02% # Class of executed instruction. (Count)
system.cpu.exec_context.thread_0.statExecutedInstType::SimdShift            0      0.00%     65.02% # Class of executed instruction. (Count)
system.cpu.exec_context.thread_0.statExecutedInstType::SimdShiftAcc            0      0.00%     65.02% # Class of executed instruction. (Count)
system.cpu.exec_context.thread_0.statExecutedInstType::SimdDiv            0      0.00%     65.02% # Class of executed instruction. (Count)
system.cpu.exec_context.thread_0.statExecutedInstType::SimdSqrt            0      0.00%     65.02% # Class of executed instruction. (Count)
system.cpu.exec_context.thread_0.statExecutedInstType::SimdFloatAdd            0      0.00%     65.02% # Class of executed instruction. (Count)
system.cpu.exec_context.thread_0.statExecutedInstType::SimdFloatAlu            0      0.00%     65.02% # Class of executed instruction. (Count)
system.cpu.exec_context.thread_0.statExecutedInstType::SimdFloatCmp            0      0.00%     65.02% # Class of executed instruction. (Count)
system.cpu.exec_context.thread_0.statExecutedInstType::SimdFloatCvt            0      0.00%     65.02% # Class of executed instruction. (Count)
system.cpu.exec_context.thread_0.statExecutedInstType::SimdFloatDiv            0      0.00%     65.02% # Class of executed instruction. (Count)
system.cpu.exec_context.thread_0.statExecutedInstType::SimdFloatMisc            3      0.05%     65.07% # Class of executed instruction. (Count)
system.cpu.exec_context.thread_0.statExecutedInstType::SimdFloatMult            0      0.00%     65.07% # Class of executed instruction. (Count)
system.cpu.exec_context.thread_0.statExecutedInstType::SimdFloatMultAcc            0      0.00%     65.07% # Class of executed instruction. (Count)
system.cpu.exec_context.thread_0.statExecutedInstType::SimdFloatSqrt            0      0.00%     65.07% # Class of executed instruction. (Count)
system.cpu.exec_context.thread_0.statExecutedInstType::SimdReduceAdd            0      0.00%     65.07% # Class of executed instruction. (Count)
system.cpu.exec_context.thread_0.statExecutedInstType::SimdReduceAlu            0      0.00%     65.07% # Class of executed instruction. (Count)
system.cpu.exec_context.thread_0.statExecutedInstType::SimdReduceCmp            0      0.00%     65.07% # Class of executed instruction. (Count)
system.cpu.exec_context.thread_0.statExecutedInstType::SimdFloatReduceAdd            0      0.00%     65.07% # Class of executed instruction. (Count)
system.cpu.exec_context.thread_0.statExecutedInstType::SimdFloatReduceCmp            0      0.00%     65.07% # Class of executed instruction. (Count)
system.cpu.exec_context.thread_0.statExecutedInstType::SimdAes            0      0.00%     65.07% # Class of executed instruction. (Count)
system.cpu.exec_context.thread_0.statExecutedInstType::SimdAesMix            0      0.00%     65.07% # Class of executed instruction. (Count)
system.cpu.exec_context.thread_0.statExecutedInstType::SimdSha1Hash            0      0.00%     65.07% # Class of executed instruction. (Count)
system.cpu.exec_context.thread_0.statExecutedInstType::SimdSha1Hash2            0      0.00%     65.07% # Class of executed instruction. (Count)
system.cpu.exec_context.thread_0.statExecutedInstType::SimdSha256Hash            0      0.00%     65.07% # Class of executed instruction. (Count)
system.cpu.exec_context.thread_0.statExecutedInstType::SimdSha256Hash2            0      0.00%     65.07% # Class of executed instruction. (Count)
system.cpu.exec_context.thread_0.statExecutedInstType::SimdShaSigma2            0      0.00%     65.07% # Class of executed instruction. (Count)
system.cpu.exec_context.thread_0.statExecutedInstType::SimdShaSigma3            0      0.00%     65.07% # Class of executed instruction. (Count)
system.cpu.exec_context.thread_0.statExecutedInstType::SimdPredAlu            0      0.00%     65.07% # Class of executed instruction. (Count)
system.cpu.exec_context.thread_0.statExecutedInstType::MemRead         1085     18.60%     83.66% # Class of executed instruction. (Count)
system.cpu.exec_context.thread_0.statExecutedInstType::MemWrite          953     16.34%    100.00% # Class of executed instruction. (Count)
system.cpu.exec_context.thread_0.statExecutedInstType::FloatMemRead            0      0.00%    100.00% # Class of executed instruction. (Count)
system.cpu.exec_context.thread_0.statExecutedInstType::FloatMemWrite            0      0.00%    100.00% # Class of executed instruction. (Count)
system.cpu.exec_context.thread_0.statExecutedInstType::IprAccess            0      0.00%    100.00% # Class of executed instruction. (Count)
system.cpu.exec_context.thread_0.statExecutedInstType::InstPrefetch            0      0.00%    100.00% # Class of executed instruction. (Count)
system.cpu.exec_context.thread_0.statExecutedInstType::total         5834                       # Class of executed instruction. (Count)
system.cpu.icache.demandHits::cpu.inst           4785                       # number of demand (read+write) hits (Count)
system.cpu.icache.demandHits::total              4785                       # number of demand (read+write) hits (Count)
system.cpu.icache.overallHits::cpu.inst          4785                       # number of overall hits (Count)
system.cpu.icache.overallHits::total             4785                       # number of overall hits (Count)
system.cpu.icache.demandMisses::cpu.inst          245                       # number of demand (read+write) misses (Count)
system.cpu.icache.demandMisses::total             245                       # number of demand (read+write) misses (Count)
system.cpu.icache.overallMisses::cpu.inst          245                       # number of overall misses (Count)
system.cpu.icache.overallMisses::total            245                       # number of overall misses (Count)
system.cpu.icache.demandMissLatency::cpu.inst     16699000                       # number of demand (read+write) miss ticks (Tick)
system.cpu.icache.demandMissLatency::total     16699000                       # number of demand (read+write) miss ticks (Tick)
system.cpu.icache.overallMissLatency::cpu.inst     16699000                       # number of overall miss ticks (Tick)
system.cpu.icache.overallMissLatency::total     16699000                       # number of overall miss ticks (Tick)
system.cpu.icache.demandAccesses::cpu.inst         5030                       # number of demand (read+write) accesses (Count)
system.cpu.icache.demandAccesses::total          5030                       # number of demand (read+write) accesses (Count)
system.cpu.icache.overallAccesses::cpu.inst         5030                       # number of overall (read+write) accesses (Count)
system.cpu.icache.overallAccesses::total         5030                       # number of overall (read+write) accesses (Count)
system.cpu.icache.demandMissRate::cpu.inst     0.048708                       # miss rate for demand accesses (Ratio)
system.cpu.icache.demandMissRate::total      0.048708                       # miss rate for demand accesses (Ratio)
system.cpu.icache.overallMissRate::cpu.inst     0.048708                       # miss rate for overall accesses (Ratio)
system.cpu.icache.overallMissRate::total     0.048708                       # miss rate for overall accesses (Ratio)
system.cpu.icache.demandAvgMissLatency::cpu.inst 68159.183673                       # average overall miss latency in ticks ((Tick/Count))
system.cpu.icache.demandAvgMissLatency::total 68159.183673                       # average overall miss latency in ticks ((Tick/Count))
system.cpu.icache.overallAvgMissLatency::cpu.inst 68159.183673                       # average overall miss latency ((Tick/Count))
system.cpu.icache.overallAvgMissLatency::total 68159.183673                       # average overall miss latency ((Tick/Count))
system.cpu.icache.blockedCycles::no_mshrs            0                       # number of cycles access was blocked (Cycle)
system.cpu.icache.blockedCycles::no_targets            0                       # number of cycles access was blocked (Cycle)
system.cpu.icache.blockedCauses::no_mshrs            0                       # number of times access was blocked (Count)
system.cpu.icache.blockedCauses::no_targets            0                       # number of times access was blocked (Count)
system.cpu.icache.avgBlocked::no_mshrs            nan                       # average number of cycles each access was blocked ((Cycle/Count))
system.cpu.icache.avgBlocked::no_targets          nan                       # average number of cycles each access was blocked ((Cycle/Count))
system.cpu.icache.demandMshrMisses::cpu.inst          245                       # number of demand (read+write) MSHR misses (Count)
system.cpu.icache.demandMshrMisses::total          245                       # number of demand (read+write) MSHR misses (Count)
system.cpu.icache.overallMshrMisses::cpu.inst          245                       # number of overall MSHR misses (Count)
system.cpu.icache.overallMshrMisses::total          245                       # number of overall MSHR misses (Count)
system.cpu.icache.demandMshrMissLatency::cpu.inst     16454000                       # number of demand (read+write) MSHR miss ticks (Tick)
system.cpu.icache.demandMshrMissLatency::total     16454000                       # number of demand (read+write) MSHR miss ticks (Tick)
system.cpu.icache.overallMshrMissLatency::cpu.inst     16454000                       # number of overall MSHR miss ticks (Tick)
system.cpu.icache.overallMshrMissLatency::total     16454000                       # number of overall MSHR miss ticks (Tick)
system.cpu.icache.demandMshrMissRate::cpu.inst     0.048708                       # mshr miss ratio for demand accesses (Ratio)
system.cpu.icache.demandMshrMissRate::total     0.048708                       # mshr miss ratio for demand accesses (Ratio)
system.cpu.icache.overallMshrMissRate::cpu.inst     0.048708                       # mshr miss ratio for overall accesses (Ratio)
system.cpu.icache.overallMshrMissRate::total     0.048708                       # mshr miss ratio for overall accesses (Ratio)
system.cpu.icache.demandAvgMshrMissLatency::cpu.inst 67159.183673                       # average overall mshr miss latency ((Tick/Count))
system.cpu.icache.demandAvgMshrMissLatency::total 67159.183673                       # average overall mshr miss latency ((Tick/Count))
system.cpu.icache.overallAvgMshrMissLatency::cpu.inst 67159.183673                       # average overall mshr miss latency ((Tick/Count))
system.cpu.icache.overallAvgMshrMissLatency::total 67159.183673                       # average overall mshr miss latency ((Tick/Count))
system.cpu.icache.replacements                     27                       # number of replacements (Count)
system.cpu.icache.ReadReq.hits::cpu.inst         4785                       # number of ReadReq hits (Count)
system.cpu.icache.ReadReq.hits::total            4785                       # number of ReadReq hits (Count)
system.cpu.icache.ReadReq.misses::cpu.inst          245                       # number of ReadReq misses (Count)
system.cpu.icache.ReadReq.misses::total           245                       # number of ReadReq misses (Count)
system.cpu.icache.ReadReq.missLatency::cpu.inst     16699000                       # number of ReadReq miss ticks (Tick)
system.cpu.icache.ReadReq.missLatency::total     16699000                       # number of ReadReq miss ticks (Tick)
system.cpu.icache.ReadReq.accesses::cpu.inst         5030                       # number of ReadReq accesses(hits+misses) (Count)
system.cpu.icache.ReadReq.accesses::total         5030                       # number of ReadReq accesses(hits+misses) (Count)
system.cpu.icache.ReadReq.missRate::cpu.inst     0.048708                       # miss rate for ReadReq accesses (Ratio)
system.cpu.icache.ReadReq.missRate::total     0.048708                       # miss rate for ReadReq accesses (Ratio)
system.cpu.icache.ReadReq.avgMissLatency::cpu.inst 68159.183673                       # average ReadReq miss latency ((Tick/Count))
system.cpu.icache.ReadReq.avgMissLatency::total 68159.183673                       # average ReadReq miss latency ((Tick/Count))
system.cpu.icache.ReadReq.mshrMisses::cpu.inst          245                       # number of ReadReq MSHR misses (Count)
system.cpu.icache.ReadReq.mshrMisses::total          245                       # number of ReadReq MSHR misses (Count)
system.cpu.icache.ReadReq.mshrMissLatency::cpu.inst     16454000                       # number of ReadReq MSHR miss ticks (Tick)
system.cpu.icache.ReadReq.mshrMissLatency::total     16454000                       # number of ReadReq MSHR miss ticks (Tick)
system.cpu.icache.ReadReq.mshrMissRate::cpu.inst     0.048708                       # mshr miss rate for ReadReq accesses (Ratio)
system.cpu.icache.ReadReq.mshrMissRate::total     0.048708                       # mshr miss rate for ReadReq accesses (Ratio)
system.cpu.icache.ReadReq.avgMshrMissLatency::cpu.inst 67159.183673                       # average ReadReq mshr miss latency ((Tick/Count))
system.cpu.icache.ReadReq.avgMshrMissLatency::total 67159.183673                       # average ReadReq mshr miss latency ((Tick/Count))
system.cpu.icache.power_state.pwrStateResidencyTicks::UNDEFINED     33928500                       # Cumulative time (in ticks) in various power states (Tick)
system.cpu.icache.tags.tagsInUse           108.506112                       # Average ticks per tags in use ((Tick/Count))
system.cpu.icache.tags.totalRefs                 5030                       # Total number of references to valid blocks. (Count)
system.cpu.icache.tags.sampledRefs                245                       # Sample count of references to valid blocks. (Count)
system.cpu.icache.tags.avgRefs              20.530612                       # Average number of references to valid blocks. ((Count/Count))
system.cpu.icache.tags.warmupTick               81000                       # The tick when the warmup percentage was hit. (Tick)
system.cpu.icache.tags.occupancies::cpu.inst   108.506112                       # Average occupied blocks per tick, per requestor ((Count/Tick))
system.cpu.icache.tags.avgOccs::cpu.inst     0.211926                       # Average percentage of cache occupancy ((Ratio/Tick))
system.cpu.icache.tags.avgOccs::total        0.211926                       # Average percentage of cache occupancy ((Ratio/Tick))
system.cpu.icache.tags.occupanciesTaskId::1024          218                       # Occupied blocks per task id (Count)
system.cpu.icache.tags.ageTaskId_1024::0           84                       # Occupied blocks per task id, per block age (Count)
system.cpu.icache.tags.ageTaskId_1024::1          134                       # Occupied blocks per task id, per block age (Count)
system.cpu.icache.tags.ratioOccsTaskId::1024     0.425781                       # Ratio of occupied blocks and all blocks, per task id (Ratio)
system.cpu.icache.tags.tagAccesses              10305                       # Number of tag accesses (Count)
system.cpu.icache.tags.dataAccesses             10305                       # Number of data accesses (Count)
system.cpu.icache.tags.power_state.pwrStateResidencyTicks::UNDEFINED     33928500                       # Cumulative time (in ticks) in various power states (Tick)
system.cpu.mmu.alignFaults                          0                       # Number of MMU faults due to alignment restrictions (Count)
system.cpu.mmu.prefetchFaults                       0                       # Number of MMU faults due to prefetch (Count)
system.cpu.mmu.domainFaults                         0                       # Number of MMU faults due to domain restrictions (Count)
system.cpu.mmu.permsFaults                          0                       # Number of MMU faults due to permissions restrictions (Count)
system.cpu.mmu.dtb.readHits                         0                       # Read hits (Count)
system.cpu.mmu.dtb.readMisses                       0                       # Read misses (Count)
system.cpu.mmu.dtb.writeHits                        0                       # Write hits (Count)
system.cpu.mmu.dtb.writeMisses                      0                       # Write misses (Count)
system.cpu.mmu.dtb.inserts                          0                       # Number of times an entry is inserted into the TLB (Count)
system.cpu.mmu.dtb.flushTlb                         0                       # Number of times complete TLB was flushed (Count)
system.cpu.mmu.dtb.flushTlbMva                      0                       # Number of times TLB was flushed by MVA (Count)
system.cpu.mmu.dtb.flushTlbMvaAsid                  0                       # Number of times TLB was flushed by MVA & ASID (Count)
system.cpu.mmu.dtb.flushTlbAsid                     0                       # Number of times TLB was flushed by ASID (Count)
system.cpu.mmu.dtb.flushedEntries                   0                       # Number of entries that have been flushed from TLB (Count)
system.cpu.mmu.dtb.readAccesses                     0                       # Read accesses (Count)
system.cpu.mmu.dtb.writeAccesses                    0                       # Write accesses (Count)
system.cpu.mmu.dtb.hits                             0                       # Total TLB (inst and data) hits (Count)
system.cpu.mmu.dtb.misses                           0                       # Total TLB (inst and data) misses (Count)
system.cpu.mmu.dtb.accesses                         0                       # Total TLB (inst and data) accesses (Count)
system.cpu.mmu.dtb_walker.walks                     0                       # Table walker walks requested (Count)
system.cpu.mmu.dtb_walker.requestOrigin_Requested::Data            0                       # Table walker requests started/completed, data/inst (Count)
system.cpu.mmu.dtb_walker.requestOrigin_Requested::Inst            0                       # Table walker requests started/completed, data/inst (Count)
system.cpu.mmu.dtb_walker.requestOrigin_Requested::total            0                       # Table walker requests started/completed, data/inst (Count)
system.cpu.mmu.dtb_walker.requestOrigin_Completed::Data            0                       # Table walker requests started/completed, data/inst (Count)
system.cpu.mmu.dtb_walker.requestOrigin_Completed::Inst            0                       # Table walker requests started/completed, data/inst (Count)
system.cpu.mmu.dtb_walker.requestOrigin_Completed::total            0                       # Table walker requests started/completed, data/inst (Count)
system.cpu.mmu.dtb_walker.requestOrigin::total            0                       # Table walker requests started/completed, data/inst (Count)
system.cpu.mmu.dtb_walker.power_state.pwrStateResidencyTicks::UNDEFINED     33928500                       # Cumulative time (in ticks) in various power states (Tick)
system.cpu.mmu.itb.instHits                         0                       # Inst hits (Count)
system.cpu.mmu.itb.instMisses                       0                       # Inst misses (Count)
system.cpu.mmu.itb.inserts                          0                       # Number of times an entry is inserted into the TLB (Count)
system.cpu.mmu.itb.flushTlb                         0                       # Number of times complete TLB was flushed (Count)
system.cpu.mmu.itb.flushTlbMva                      0                       # Number of times TLB was flushed by MVA (Count)
system.cpu.mmu.itb.flushTlbMvaAsid                  0                       # Number of times TLB was flushed by MVA & ASID (Count)
system.cpu.mmu.itb.flushTlbAsid                     0                       # Number of times TLB was flushed by ASID (Count)
system.cpu.mmu.itb.flushedEntries                   0                       # Number of entries that have been flushed from TLB (Count)
system.cpu.mmu.itb.instAccesses                     0                       # Inst accesses (Count)
system.cpu.mmu.itb.hits                             0                       # Total TLB (inst and data) hits (Count)
system.cpu.mmu.itb.misses                           0                       # Total TLB (inst and data) misses (Count)
system.cpu.mmu.itb.accesses                         0                       # Total TLB (inst and data) accesses (Count)
system.cpu.mmu.itb_walker.walks                     0                       # Table walker walks requested (Count)
system.cpu.mmu.itb_walker.requestOrigin_Requested::Data            0                       # Table walker requests started/completed, data/inst (Count)
system.cpu.mmu.itb_walker.requestOrigin_Requested::Inst            0                       # Table walker requests started/completed, data/inst (Count)
system.cpu.mmu.itb_walker.requestOrigin_Requested::total            0                       # Table walker requests started/completed, data/inst (Count)
system.cpu.mmu.itb_walker.requestOrigin_Completed::Data            0                       # Table walker requests started/completed, data/inst (Count)
system.cpu.mmu.itb_walker.requestOrigin_Completed::Inst            0                       # Table walker requests started/completed, data/inst (Count)
system.cpu.mmu.itb_walker.requestOrigin_Completed::total            0                       # Table walker requests started/completed, data/inst (Count)
system.cpu.mmu.itb_walker.requestOrigin::total            0                       # Table walker requests started/completed, data/inst (Count)
system.cpu.mmu.itb_walker.power_state.pwrStateResidencyTicks::UNDEFINED     33928500                       # Cumulative time (in ticks) in various power states (Tick)
system.cpu.mmu.l2_shared.instHits                   0                       # Inst hits (Count)
system.cpu.mmu.l2_shared.instMisses                 0                       # Inst misses (Count)
system.cpu.mmu.l2_shared.inserts                    0                       # Number of times an entry is inserted into the TLB (Count)
system.cpu.mmu.l2_shared.flushTlb                   0                       # Number of times complete TLB was flushed (Count)
system.cpu.mmu.l2_shared.flushTlbMva                0                       # Number of times TLB was flushed by MVA (Count)
system.cpu.mmu.l2_shared.flushTlbMvaAsid            0                       # Number of times TLB was flushed by MVA & ASID (Count)
system.cpu.mmu.l2_shared.flushTlbAsid               0                       # Number of times TLB was flushed by ASID (Count)
system.cpu.mmu.l2_shared.flushedEntries             0                       # Number of entries that have been flushed from TLB (Count)
system.cpu.mmu.l2_shared.instAccesses               0                       # Inst accesses (Count)
system.cpu.mmu.l2_shared.hits                       0                       # Total TLB (inst and data) hits (Count)
system.cpu.mmu.l2_shared.misses                     0                       # Total TLB (inst and data) misses (Count)
system.cpu.mmu.l2_shared.accesses                   0                       # Total TLB (inst and data) accesses (Count)
system.cpu.mmu.stage2_dtb.readHits                  0                       # Read hits (Count)
system.cpu.mmu.stage2_dtb.readMisses                0                       # Read misses (Count)
system.cpu.mmu.stage2_dtb.writeHits                 0                       # Write hits (Count)
system.cpu.mmu.stage2_dtb.writeMisses               0                       # Write misses (Count)
system.cpu.mmu.stage2_dtb.inserts                   0                       # Number of times an entry is inserted into the TLB (Count)
system.cpu.mmu.stage2_dtb.flushTlb                  0                       # Number of times complete TLB was flushed (Count)
system.cpu.mmu.stage2_dtb.flushTlbMva               0                       # Number of times TLB was flushed by MVA (Count)
system.cpu.mmu.stage2_dtb.flushTlbMvaAsid            0                       # Number of times TLB was flushed by MVA & ASID (Count)
system.cpu.mmu.stage2_dtb.flushTlbAsid              0                       # Number of times TLB was flushed by ASID (Count)
system.cpu.mmu.stage2_dtb.flushedEntries            0                       # Number of entries that have been flushed from TLB (Count)
system.cpu.mmu.stage2_dtb.readAccesses              0                       # Read accesses (Count)
system.cpu.mmu.stage2_dtb.writeAccesses             0                       # Write accesses (Count)
system.cpu.mmu.stage2_dtb.hits                      0                       # Total TLB (inst and data) hits (Count)
system.cpu.mmu.stage2_dtb.misses                    0                       # Total TLB (inst and data) misses (Count)
system.cpu.mmu.stage2_dtb.accesses                  0                       # Total TLB (inst and data) accesses (Count)
system.cpu.mmu.stage2_dtb_walker.walks              0                       # Table walker walks requested (Count)
system.cpu.mmu.stage2_dtb_walker.requestOrigin_Requested::Data            0                       # Table walker requests started/completed, data/inst (Count)
system.cpu.mmu.stage2_dtb_walker.requestOrigin_Requested::Inst            0                       # Table walker requests started/completed, data/inst (Count)
system.cpu.mmu.stage2_dtb_walker.requestOrigin_Requested::total            0                       # Table walker requests started/completed, data/inst (Count)
system.cpu.mmu.stage2_dtb_walker.requestOrigin_Completed::Data            0                       # Table walker requests started/completed, data/inst (Count)
system.cpu.mmu.stage2_dtb_walker.requestOrigin_Completed::Inst            0                       # Table walker requests started/completed, data/inst (Count)
system.cpu.mmu.stage2_dtb_walker.requestOrigin_Completed::total            0                       # Table walker requests started/completed, data/inst (Count)
system.cpu.mmu.stage2_dtb_walker.requestOrigin::total            0                       # Table walker requests started/completed, data/inst (Count)
system.cpu.mmu.stage2_dtb_walker.power_state.pwrStateResidencyTicks::UNDEFINED     33928500                       # Cumulative time (in ticks) in various power states (Tick)
system.cpu.mmu.stage2_itb.instHits                  0                       # Inst hits (Count)
system.cpu.mmu.stage2_itb.instMisses                0                       # Inst misses (Count)
system.cpu.mmu.stage2_itb.inserts                   0                       # Number of times an entry is inserted into the TLB (Count)
system.cpu.mmu.stage2_itb.flushTlb                  0                       # Number of times complete TLB was flushed (Count)
system.cpu.mmu.stage2_itb.flushTlbMva               0                       # Number of times TLB was flushed by MVA (Count)
system.cpu.mmu.stage2_itb.flushTlbMvaAsid            0                       # Number of times TLB was flushed by MVA & ASID (Count)
system.cpu.mmu.stage2_itb.flushTlbAsid              0                       # Number of times TLB was flushed by ASID (Count)
system.cpu.mmu.stage2_itb.flushedEntries            0                       # Number of entries that have been flushed from TLB (Count)
system.cpu.mmu.stage2_itb.instAccesses              0                       # Inst accesses (Count)
system.cpu.mmu.stage2_itb.hits                      0                       # Total TLB (inst and data) hits (Count)
system.cpu.mmu.stage2_itb.misses                    0                       # Total TLB (inst and data) misses (Count)
system.cpu.mmu.stage2_itb.accesses                  0                       # Total TLB (inst and data) accesses (Count)
system.cpu.mmu.stage2_itb_walker.walks              0                       # Table walker walks requested (Count)
system.cpu.mmu.stage2_itb_walker.requestOrigin_Requested::Data            0                       # Table walker requests started/completed, data/inst (Count)
system.cpu.mmu.stage2_itb_walker.requestOrigin_Requested::Inst            0                       # Table walker requests started/completed, data/inst (Count)
system.cpu.mmu.stage2_itb_walker.requestOrigin_Requested::total            0                       # Table walker requests started/completed, data/inst (Count)
system.cpu.mmu.stage2_itb_walker.requestOrigin_Completed::Data            0                       # Table walker requests started/completed, data/inst (Count)
system.cpu.mmu.stage2_itb_walker.requestOrigin_Completed::Inst            0                       # Table walker requests started/completed, data/inst (Count)
system.cpu.mmu.stage2_itb_walker.requestOrigin_Completed::total            0                       # Table walker requests started/completed, data/inst (Count)
system.cpu.mmu.stage2_itb_walker.requestOrigin::total            0                       # Table walker requests started/completed, data/inst (Count)
system.cpu.mmu.stage2_itb_walker.power_state.pwrStateResidencyTicks::UNDEFINED     33928500                       # Cumulative time (in ticks) in various power states (Tick)
system.cpu.power_state.pwrStateResidencyTicks::ON     33928500                       # Cumulative time (in ticks) in various power states (Tick)
system.cpu.thread_0.numInsts                        0                       # Number of Instructions committed (Count)
system.cpu.thread_0.numOps                          0                       # Number of Ops committed (Count)
system.cpu.thread_0.numMemRefs                      0                       # Number of Memory References (Count)
system.cpu.workload.numSyscalls                    13                       # Number of system calls (Count)
system.l2dcache.demandMisses::cpu.data            142                       # number of demand (read+write) misses (Count)
system.l2dcache.demandMisses::total               142                       # number of demand (read+write) misses (Count)
system.l2dcache.overallMisses::cpu.data           142                       # number of overall misses (Count)
system.l2dcache.overallMisses::total              142                       # number of overall misses (Count)
system.l2dcache.demandMissLatency::cpu.data     10310500                       # number of demand (read+write) miss ticks (Tick)
system.l2dcache.demandMissLatency::total     10310500                       # number of demand (read+write) miss ticks (Tick)
system.l2dcache.overallMissLatency::cpu.data     10310500                       # number of overall miss ticks (Tick)
system.l2dcache.overallMissLatency::total     10310500                       # number of overall miss ticks (Tick)
system.l2dcache.demandAccesses::cpu.data          142                       # number of demand (read+write) accesses (Count)
system.l2dcache.demandAccesses::total             142                       # number of demand (read+write) accesses (Count)
system.l2dcache.overallAccesses::cpu.data          142                       # number of overall (read+write) accesses (Count)
system.l2dcache.overallAccesses::total            142                       # number of overall (read+write) accesses (Count)
system.l2dcache.demandMissRate::cpu.data            1                       # miss rate for demand accesses (Ratio)
system.l2dcache.demandMissRate::total               1                       # miss rate for demand accesses (Ratio)
system.l2dcache.overallMissRate::cpu.data            1                       # miss rate for overall accesses (Ratio)
system.l2dcache.overallMissRate::total              1                       # miss rate for overall accesses (Ratio)
system.l2dcache.demandAvgMissLatency::cpu.data 72609.154930                       # average overall miss latency in ticks ((Tick/Count))
system.l2dcache.demandAvgMissLatency::total 72609.154930                       # average overall miss latency in ticks ((Tick/Count))
system.l2dcache.overallAvgMissLatency::cpu.data 72609.154930                       # average overall miss latency ((Tick/Count))
system.l2dcache.overallAvgMissLatency::total 72609.154930                       # average overall miss latency ((Tick/Count))
system.l2dcache.blockedCycles::no_mshrs             0                       # number of cycles access was blocked (Cycle)
system.l2dcache.blockedCycles::no_targets            0                       # number of cycles access was blocked (Cycle)
system.l2dcache.blockedCauses::no_mshrs             0                       # number of times access was blocked (Count)
system.l2dcache.blockedCauses::no_targets            0                       # number of times access was blocked (Count)
system.l2dcache.avgBlocked::no_mshrs              nan                       # average number of cycles each access was blocked ((Cycle/Count))
system.l2dcache.avgBlocked::no_targets            nan                       # average number of cycles each access was blocked ((Cycle/Count))
system.l2dcache.demandMshrMisses::cpu.data          142                       # number of demand (read+write) MSHR misses (Count)
system.l2dcache.demandMshrMisses::total           142                       # number of demand (read+write) MSHR misses (Count)
system.l2dcache.overallMshrMisses::cpu.data          142                       # number of overall MSHR misses (Count)
system.l2dcache.overallMshrMisses::total          142                       # number of overall MSHR misses (Count)
system.l2dcache.demandMshrMissLatency::cpu.data      8890500                       # number of demand (read+write) MSHR miss ticks (Tick)
system.l2dcache.demandMshrMissLatency::total      8890500                       # number of demand (read+write) MSHR miss ticks (Tick)
system.l2dcache.overallMshrMissLatency::cpu.data      8890500                       # number of overall MSHR miss ticks (Tick)
system.l2dcache.overallMshrMissLatency::total      8890500                       # number of overall MSHR miss ticks (Tick)
system.l2dcache.demandMshrMissRate::cpu.data            1                       # mshr miss ratio for demand accesses (Ratio)
system.l2dcache.demandMshrMissRate::total            1                       # mshr miss ratio for demand accesses (Ratio)
system.l2dcache.overallMshrMissRate::cpu.data            1                       # mshr miss ratio for overall accesses (Ratio)
system.l2dcache.overallMshrMissRate::total            1                       # mshr miss ratio for overall accesses (Ratio)
system.l2dcache.demandAvgMshrMissLatency::cpu.data 62609.154930                       # average overall mshr miss latency ((Tick/Count))
system.l2dcache.demandAvgMshrMissLatency::total 62609.154930                       # average overall mshr miss latency ((Tick/Count))
system.l2dcache.overallAvgMshrMissLatency::cpu.data 62609.154930                       # average overall mshr miss latency ((Tick/Count))
system.l2dcache.overallAvgMshrMissLatency::total 62609.154930                       # average overall mshr miss latency ((Tick/Count))
system.l2dcache.replacements                        0                       # number of replacements (Count)
system.l2dcache.ReadExReq.misses::cpu.data           43                       # number of ReadExReq misses (Count)
system.l2dcache.ReadExReq.misses::total            43                       # number of ReadExReq misses (Count)
system.l2dcache.ReadExReq.missLatency::cpu.data      3111000                       # number of ReadExReq miss ticks (Tick)
system.l2dcache.ReadExReq.missLatency::total      3111000                       # number of ReadExReq miss ticks (Tick)
system.l2dcache.ReadExReq.accesses::cpu.data           43                       # number of ReadExReq accesses(hits+misses) (Count)
system.l2dcache.ReadExReq.accesses::total           43                       # number of ReadExReq accesses(hits+misses) (Count)
system.l2dcache.ReadExReq.missRate::cpu.data            1                       # miss rate for ReadExReq accesses (Ratio)
system.l2dcache.ReadExReq.missRate::total            1                       # miss rate for ReadExReq accesses (Ratio)
system.l2dcache.ReadExReq.avgMissLatency::cpu.data 72348.837209                       # average ReadExReq miss latency ((Tick/Count))
system.l2dcache.ReadExReq.avgMissLatency::total 72348.837209                       # average ReadExReq miss latency ((Tick/Count))
system.l2dcache.ReadExReq.mshrMisses::cpu.data           43                       # number of ReadExReq MSHR misses (Count)
system.l2dcache.ReadExReq.mshrMisses::total           43                       # number of ReadExReq MSHR misses (Count)
system.l2dcache.ReadExReq.mshrMissLatency::cpu.data      2681000                       # number of ReadExReq MSHR miss ticks (Tick)
system.l2dcache.ReadExReq.mshrMissLatency::total      2681000                       # number of ReadExReq MSHR miss ticks (Tick)
system.l2dcache.ReadExReq.mshrMissRate::cpu.data            1                       # mshr miss rate for ReadExReq accesses (Ratio)
system.l2dcache.ReadExReq.mshrMissRate::total            1                       # mshr miss rate for ReadExReq accesses (Ratio)
system.l2dcache.ReadExReq.avgMshrMissLatency::cpu.data 62348.837209                       # average ReadExReq mshr miss latency ((Tick/Count))
system.l2dcache.ReadExReq.avgMshrMissLatency::total 62348.837209                       # average ReadExReq mshr miss latency ((Tick/Count))
system.l2dcache.ReadSharedReq.misses::cpu.data           99                       # number of ReadSharedReq misses (Count)
system.l2dcache.ReadSharedReq.misses::total           99                       # number of ReadSharedReq misses (Count)
system.l2dcache.ReadSharedReq.missLatency::cpu.data      7199500                       # number of ReadSharedReq miss ticks (Tick)
system.l2dcache.ReadSharedReq.missLatency::total      7199500                       # number of ReadSharedReq miss ticks (Tick)
system.l2dcache.ReadSharedReq.accesses::cpu.data           99                       # number of ReadSharedReq accesses(hits+misses) (Count)
system.l2dcache.ReadSharedReq.accesses::total           99                       # number of ReadSharedReq accesses(hits+misses) (Count)
system.l2dcache.ReadSharedReq.missRate::cpu.data            1                       # miss rate for ReadSharedReq accesses (Ratio)
system.l2dcache.ReadSharedReq.missRate::total            1                       # miss rate for ReadSharedReq accesses (Ratio)
system.l2dcache.ReadSharedReq.avgMissLatency::cpu.data 72722.222222                       # average ReadSharedReq miss latency ((Tick/Count))
system.l2dcache.ReadSharedReq.avgMissLatency::total 72722.222222                       # average ReadSharedReq miss latency ((Tick/Count))
system.l2dcache.ReadSharedReq.mshrMisses::cpu.data           99                       # number of ReadSharedReq MSHR misses (Count)
system.l2dcache.ReadSharedReq.mshrMisses::total           99                       # number of ReadSharedReq MSHR misses (Count)
system.l2dcache.ReadSharedReq.mshrMissLatency::cpu.data      6209500                       # number of ReadSharedReq MSHR miss ticks (Tick)
system.l2dcache.ReadSharedReq.mshrMissLatency::total      6209500                       # number of ReadSharedReq MSHR miss ticks (Tick)
system.l2dcache.ReadSharedReq.mshrMissRate::cpu.data            1                       # mshr miss rate for ReadSharedReq accesses (Ratio)
system.l2dcache.ReadSharedReq.mshrMissRate::total            1                       # mshr miss rate for ReadSharedReq accesses (Ratio)
system.l2dcache.ReadSharedReq.avgMshrMissLatency::cpu.data 62722.222222                       # average ReadSharedReq mshr miss latency ((Tick/Count))
system.l2dcache.ReadSharedReq.avgMshrMissLatency::total 62722.222222                       # average ReadSharedReq mshr miss latency ((Tick/Count))
system.l2dcache.power_state.pwrStateResidencyTicks::UNDEFINED     33928500                       # Cumulative time (in ticks) in various power states (Tick)
system.l2dcache.tags.tagsInUse              83.565426                       # Average ticks per tags in use ((Tick/Count))
system.l2dcache.tags.totalRefs                    143                       # Total number of references to valid blocks. (Count)
system.l2dcache.tags.sampledRefs                  142                       # Sample count of references to valid blocks. (Count)
system.l2dcache.tags.avgRefs                 1.007042                       # Average number of references to valid blocks. ((Count/Count))
system.l2dcache.tags.warmupTick                145500                       # The tick when the warmup percentage was hit. (Tick)
system.l2dcache.tags.occupancies::cpu.data    83.565426                       # Average occupied blocks per tick, per requestor ((Count/Tick))
system.l2dcache.tags.avgOccs::cpu.data       0.020402                       # Average percentage of cache occupancy ((Ratio/Tick))
system.l2dcache.tags.avgOccs::total          0.020402                       # Average percentage of cache occupancy ((Ratio/Tick))
system.l2dcache.tags.occupanciesTaskId::1024          142                       # Occupied blocks per task id (Count)
system.l2dcache.tags.ageTaskId_1024::0             30                       # Occupied blocks per task id, per block age (Count)
system.l2dcache.tags.ageTaskId_1024::1            112                       # Occupied blocks per task id, per block age (Count)
system.l2dcache.tags.ratioOccsTaskId::1024     0.034668                       # Ratio of occupied blocks and all blocks, per task id (Ratio)
system.l2dcache.tags.tagAccesses                 1286                       # Number of tag accesses (Count)
system.l2dcache.tags.dataAccesses                1286                       # Number of data accesses (Count)
system.l2dcache.tags.power_state.pwrStateResidencyTicks::UNDEFINED     33928500                       # Cumulative time (in ticks) in various power states (Tick)
system.l2icache.demandHits::cpu.inst                3                       # number of demand (read+write) hits (Count)
system.l2icache.demandHits::total                   3                       # number of demand (read+write) hits (Count)
system.l2icache.overallHits::cpu.inst               3                       # number of overall hits (Count)
system.l2icache.overallHits::total                  3                       # number of overall hits (Count)
system.l2icache.demandMisses::cpu.inst            242                       # number of demand (read+write) misses (Count)
system.l2icache.demandMisses::total               242                       # number of demand (read+write) misses (Count)
system.l2icache.overallMisses::cpu.inst           242                       # number of overall misses (Count)
system.l2icache.overallMisses::total              242                       # number of overall misses (Count)
system.l2icache.demandMissLatency::cpu.inst     16179000                       # number of demand (read+write) miss ticks (Tick)
system.l2icache.demandMissLatency::total     16179000                       # number of demand (read+write) miss ticks (Tick)
system.l2icache.overallMissLatency::cpu.inst     16179000                       # number of overall miss ticks (Tick)
system.l2icache.overallMissLatency::total     16179000                       # number of overall miss ticks (Tick)
system.l2icache.demandAccesses::cpu.inst          245                       # number of demand (read+write) accesses (Count)
system.l2icache.demandAccesses::total             245                       # number of demand (read+write) accesses (Count)
system.l2icache.overallAccesses::cpu.inst          245                       # number of overall (read+write) accesses (Count)
system.l2icache.overallAccesses::total            245                       # number of overall (read+write) accesses (Count)
system.l2icache.demandMissRate::cpu.inst     0.987755                       # miss rate for demand accesses (Ratio)
system.l2icache.demandMissRate::total        0.987755                       # miss rate for demand accesses (Ratio)
system.l2icache.overallMissRate::cpu.inst     0.987755                       # miss rate for overall accesses (Ratio)
system.l2icache.overallMissRate::total       0.987755                       # miss rate for overall accesses (Ratio)
system.l2icache.demandAvgMissLatency::cpu.inst 66855.371901                       # average overall miss latency in ticks ((Tick/Count))
system.l2icache.demandAvgMissLatency::total 66855.371901                       # average overall miss latency in ticks ((Tick/Count))
system.l2icache.overallAvgMissLatency::cpu.inst 66855.371901                       # average overall miss latency ((Tick/Count))
system.l2icache.overallAvgMissLatency::total 66855.371901                       # average overall miss latency ((Tick/Count))
system.l2icache.blockedCycles::no_mshrs             0                       # number of cycles access was blocked (Cycle)
system.l2icache.blockedCycles::no_targets            0                       # number of cycles access was blocked (Cycle)
system.l2icache.blockedCauses::no_mshrs             0                       # number of times access was blocked (Count)
system.l2icache.blockedCauses::no_targets            0                       # number of times access was blocked (Count)
system.l2icache.avgBlocked::no_mshrs              nan                       # average number of cycles each access was blocked ((Cycle/Count))
system.l2icache.avgBlocked::no_targets            nan                       # average number of cycles each access was blocked ((Cycle/Count))
system.l2icache.demandMshrMisses::cpu.inst          242                       # number of demand (read+write) MSHR misses (Count)
system.l2icache.demandMshrMisses::total           242                       # number of demand (read+write) MSHR misses (Count)
system.l2icache.overallMshrMisses::cpu.inst          242                       # number of overall MSHR misses (Count)
system.l2icache.overallMshrMisses::total          242                       # number of overall MSHR misses (Count)
system.l2icache.demandMshrMissLatency::cpu.inst     13759000                       # number of demand (read+write) MSHR miss ticks (Tick)
system.l2icache.demandMshrMissLatency::total     13759000                       # number of demand (read+write) MSHR miss ticks (Tick)
system.l2icache.overallMshrMissLatency::cpu.inst     13759000                       # number of overall MSHR miss ticks (Tick)
system.l2icache.overallMshrMissLatency::total     13759000                       # number of overall MSHR miss ticks (Tick)
system.l2icache.demandMshrMissRate::cpu.inst     0.987755                       # mshr miss ratio for demand accesses (Ratio)
system.l2icache.demandMshrMissRate::total     0.987755                       # mshr miss ratio for demand accesses (Ratio)
system.l2icache.overallMshrMissRate::cpu.inst     0.987755                       # mshr miss ratio for overall accesses (Ratio)
system.l2icache.overallMshrMissRate::total     0.987755                       # mshr miss ratio for overall accesses (Ratio)
system.l2icache.demandAvgMshrMissLatency::cpu.inst 56855.371901                       # average overall mshr miss latency ((Tick/Count))
system.l2icache.demandAvgMshrMissLatency::total 56855.371901                       # average overall mshr miss latency ((Tick/Count))
system.l2icache.overallAvgMshrMissLatency::cpu.inst 56855.371901                       # average overall mshr miss latency ((Tick/Count))
system.l2icache.overallAvgMshrMissLatency::total 56855.371901                       # average overall mshr miss latency ((Tick/Count))
system.l2icache.replacements                        0                       # number of replacements (Count)
system.l2icache.ReadSharedReq.hits::cpu.inst            3                       # number of ReadSharedReq hits (Count)
system.l2icache.ReadSharedReq.hits::total            3                       # number of ReadSharedReq hits (Count)
system.l2icache.ReadSharedReq.misses::cpu.inst          242                       # number of ReadSharedReq misses (Count)
system.l2icache.ReadSharedReq.misses::total          242                       # number of ReadSharedReq misses (Count)
system.l2icache.ReadSharedReq.missLatency::cpu.inst     16179000                       # number of ReadSharedReq miss ticks (Tick)
system.l2icache.ReadSharedReq.missLatency::total     16179000                       # number of ReadSharedReq miss ticks (Tick)
system.l2icache.ReadSharedReq.accesses::cpu.inst          245                       # number of ReadSharedReq accesses(hits+misses) (Count)
system.l2icache.ReadSharedReq.accesses::total          245                       # number of ReadSharedReq accesses(hits+misses) (Count)
system.l2icache.ReadSharedReq.missRate::cpu.inst     0.987755                       # miss rate for ReadSharedReq accesses (Ratio)
system.l2icache.ReadSharedReq.missRate::total     0.987755                       # miss rate for ReadSharedReq accesses (Ratio)
system.l2icache.ReadSharedReq.avgMissLatency::cpu.inst 66855.371901                       # average ReadSharedReq miss latency ((Tick/Count))
system.l2icache.ReadSharedReq.avgMissLatency::total 66855.371901                       # average ReadSharedReq miss latency ((Tick/Count))
system.l2icache.ReadSharedReq.mshrMisses::cpu.inst          242                       # number of ReadSharedReq MSHR misses (Count)
system.l2icache.ReadSharedReq.mshrMisses::total          242                       # number of ReadSharedReq MSHR misses (Count)
system.l2icache.ReadSharedReq.mshrMissLatency::cpu.inst     13759000                       # number of ReadSharedReq MSHR miss ticks (Tick)
system.l2icache.ReadSharedReq.mshrMissLatency::total     13759000                       # number of ReadSharedReq MSHR miss ticks (Tick)
system.l2icache.ReadSharedReq.mshrMissRate::cpu.inst     0.987755                       # mshr miss rate for ReadSharedReq accesses (Ratio)
system.l2icache.ReadSharedReq.mshrMissRate::total     0.987755                       # mshr miss rate for ReadSharedReq accesses (Ratio)
system.l2icache.ReadSharedReq.avgMshrMissLatency::cpu.inst 56855.371901                       # average ReadSharedReq mshr miss latency ((Tick/Count))
system.l2icache.ReadSharedReq.avgMshrMissLatency::total 56855.371901                       # average ReadSharedReq mshr miss latency ((Tick/Count))
system.l2icache.power_state.pwrStateResidencyTicks::UNDEFINED     33928500                       # Cumulative time (in ticks) in various power states (Tick)
system.l2icache.tags.tagsInUse             115.768193                       # Average ticks per tags in use ((Tick/Count))
system.l2icache.tags.totalRefs                    272                       # Total number of references to valid blocks. (Count)
system.l2icache.tags.sampledRefs                  242                       # Sample count of references to valid blocks. (Count)
system.l2icache.tags.avgRefs                 1.123967                       # Average number of references to valid blocks. ((Count/Count))
system.l2icache.tags.warmupTick                 71000                       # The tick when the warmup percentage was hit. (Tick)
system.l2icache.tags.occupancies::cpu.inst   115.768193                       # Average occupied blocks per tick, per requestor ((Count/Tick))
system.l2icache.tags.avgOccs::cpu.inst       0.028264                       # Average percentage of cache occupancy ((Ratio/Tick))
system.l2icache.tags.avgOccs::total          0.028264                       # Average percentage of cache occupancy ((Ratio/Tick))
system.l2icache.tags.occupanciesTaskId::1024          242                       # Occupied blocks per task id (Count)
system.l2icache.tags.ageTaskId_1024::0             82                       # Occupied blocks per task id, per block age (Count)
system.l2icache.tags.ageTaskId_1024::1            160                       # Occupied blocks per task id, per block age (Count)
system.l2icache.tags.ratioOccsTaskId::1024     0.059082                       # Ratio of occupied blocks and all blocks, per task id (Ratio)
system.l2icache.tags.tagAccesses                 2418                       # Number of tag accesses (Count)
system.l2icache.tags.dataAccesses                2418                       # Number of data accesses (Count)
system.l2icache.tags.power_state.pwrStateResidencyTicks::UNDEFINED     33928500                       # Cumulative time (in ticks) in various power states (Tick)
system.mem_ctrl.avgPriority_cpu.inst::samples       242.00                       # Average QoS priority value for accepted requests (Count)
system.mem_ctrl.avgPriority_cpu.data::samples       142.00                       # Average QoS priority value for accepted requests (Count)
system.mem_ctrl.priorityMinLatency       0.000000017492                       # per QoS priority minimum request to response latency (Second)
system.mem_ctrl.priorityMaxLatency       0.000000721332                       # per QoS priority maximum request to response latency (Second)
system.mem_ctrl.numReadWriteTurnArounds             0                       # Number of turnarounds from READ to WRITE (Count)
system.mem_ctrl.numWriteReadTurnArounds             0                       # Number of turnarounds from WRITE to READ (Count)
system.mem_ctrl.numStayReadState                  776                       # Number of times bus staying in READ state (Count)
system.mem_ctrl.numStayWriteState                   0                       # Number of times bus staying in WRITE state (Count)
system.mem_ctrl.readReqs                          384                       # Number of read requests accepted (Count)
system.mem_ctrl.writeReqs                           0                       # Number of write requests accepted (Count)
system.mem_ctrl.readBursts                        384                       # Number of controller read bursts, including those serviced by the write queue (Count)
system.mem_ctrl.writeBursts                         0                       # Number of controller write bursts, including those merged in the write queue (Count)
system.mem_ctrl.servicedByWrQ                       0                       # Number of controller read bursts serviced by the write queue (Count)
system.mem_ctrl.mergedWrBursts                      0                       # Number of controller write bursts merged with an existing one (Count)
system.mem_ctrl.neitherReadNorWriteReqs             0                       # Number of requests that are neither read nor write (Count)
system.mem_ctrl.avgRdQLen                        1.00                       # Average read queue length when enqueuing ((Count/Tick))
system.mem_ctrl.avgWrQLen                        0.00                       # Average write queue length when enqueuing ((Count/Tick))
system.mem_ctrl.numRdRetry                          0                       # Number of times read queue was full causing retry (Count)
system.mem_ctrl.numWrRetry                          0                       # Number of times write queue was full causing retry (Count)
system.mem_ctrl.readPktSize::0                      0                       # Read request sizes (log2) (Count)
system.mem_ctrl.readPktSize::1                      0                       # Read request sizes (log2) (Count)
system.mem_ctrl.readPktSize::2                      0                       # Read request sizes (log2) (Count)
system.mem_ctrl.readPktSize::3                      0                       # Read request sizes (log2) (Count)
system.mem_ctrl.readPktSize::4                      0                       # Read request sizes (log2) (Count)
system.mem_ctrl.readPktSize::5                      0                       # Read request sizes (log2) (Count)
system.mem_ctrl.readPktSize::6                    384                       # Read request sizes (log2) (Count)
system.mem_ctrl.writePktSize::0                     0                       # Write request sizes (log2) (Count)
system.mem_ctrl.writePktSize::1                     0                       # Write request sizes (log2) (Count)
system.mem_ctrl.writePktSize::2                     0                       # Write request sizes (log2) (Count)
system.mem_ctrl.writePktSize::3                     0                       # Write request sizes (log2) (Count)
system.mem_ctrl.writePktSize::4                     0                       # Write request sizes (log2) (Count)
system.mem_ctrl.writePktSize::5                     0                       # Write request sizes (log2) (Count)
system.mem_ctrl.writePktSize::6                     0                       # Write request sizes (log2) (Count)
system.mem_ctrl.rdQLenPdf::0                      384                       # What read queue length does an incoming req see (Count)
system.mem_ctrl.rdQLenPdf::1                        0                       # What read queue length does an incoming req see (Count)
[...]
system.mem_ctrl.dram.perBankRdBursts::10            3                       # Per bank write bursts (Count)
system.mem_ctrl.dram.perBankRdBursts::11            0                       # Per bank write bursts (Count)
system.mem_ctrl.dram.perBankRdBursts::12            0                       # Per bank write bursts (Count)
system.mem_ctrl.dram.perBankRdBursts::13            3                       # Per bank write bursts (Count)
system.mem_ctrl.dram.perBankRdBursts::14            0                       # Per bank write bursts (Count)
system.mem_ctrl.dram.perBankRdBursts::15            7                       # Per bank write bursts (Count)
system.mem_ctrl.dram.perBankRdBursts::16           18                       # Per bank write bursts (Count)
system.mem_ctrl.dram.perBankRdBursts::17           20                       # Per bank write bursts (Count)
system.mem_ctrl.dram.perBankRdBursts::18            0                       # Per bank write bursts (Count)
system.mem_ctrl.dram.perBankRdBursts::19            0                       # Per bank write bursts (Count)
system.mem_ctrl.dram.perBankRdBursts::20            0                       # Per bank write bursts (Count)
system.mem_ctrl.dram.perBankRdBursts::21            6                       # Per bank write bursts (Count)
system.mem_ctrl.dram.perBankRdBursts::22            0                       # Per bank write bursts (Count)
system.mem_ctrl.dram.perBankRdBursts::23            9                       # Per bank write bursts (Count)
system.mem_ctrl.dram.perBankRdBursts::24            0                       # Per bank write bursts (Count)
system.mem_ctrl.dram.perBankRdBursts::25            1                       # Per bank write bursts (Count)
system.mem_ctrl.dram.perBankRdBursts::26           23                       # Per bank write bursts (Count)
system.mem_ctrl.dram.perBankRdBursts::27           43                       # Per bank write bursts (Count)
system.mem_ctrl.dram.perBankRdBursts::28            8                       # Per bank write bursts (Count)
system.mem_ctrl.dram.perBankRdBursts::29            2                       # Per bank write bursts (Count)
system.mem_ctrl.dram.perBankRdBursts::30            0                       # Per bank write bursts (Count)
system.mem_ctrl.dram.perBankRdBursts::31            0                       # Per bank write bursts (Count)
system.mem_ctrl.dram.perBankWrBursts::0             0                       # Per bank write bursts (Count)
system.mem_ctrl.dram.perBankWrBursts::1             0                       # Per bank write bursts (Count)
system.mem_ctrl.dram.perBankWrBursts::2             0                       # Per bank write bursts (Count)
system.mem_ctrl.dram.perBankWrBursts::3             0                       # Per bank write bursts (Count)
system.mem_ctrl.dram.perBankWrBursts::4             0                       # Per bank write bursts (Count)
system.mem_ctrl.dram.perBankWrBursts::5             0                       # Per bank write bursts (Count)
system.mem_ctrl.dram.perBankWrBursts::6             0                       # Per bank write bursts (Count)
system.mem_ctrl.dram.perBankWrBursts::7             0                       # Per bank write bursts (Count)
system.mem_ctrl.dram.perBankWrBursts::8             0                       # Per bank write bursts (Count)
system.mem_ctrl.dram.perBankWrBursts::9             0                       # Per bank write bursts (Count)
system.mem_ctrl.dram.perBankWrBursts::10            0                       # Per bank write bursts (Count)
system.mem_ctrl.dram.perBankWrBursts::11            0                       # Per bank write bursts (Count)
system.mem_ctrl.dram.perBankWrBursts::12            0                       # Per bank write bursts (Count)
system.mem_ctrl.dram.perBankWrBursts::13            0                       # Per bank write bursts (Count)
system.mem_ctrl.dram.perBankWrBursts::14            0                       # Per bank write bursts (Count)
system.mem_ctrl.dram.perBankWrBursts::15            0                       # Per bank write bursts (Count)
system.mem_ctrl.dram.perBankWrBursts::16            0                       # Per bank write bursts (Count)
system.mem_ctrl.dram.perBankWrBursts::17            0                       # Per bank write bursts (Count)
system.mem_ctrl.dram.perBankWrBursts::18            0                       # Per bank write bursts (Count)
system.mem_ctrl.dram.perBankWrBursts::19            0                       # Per bank write bursts (Count)
system.mem_ctrl.dram.perBankWrBursts::20            0                       # Per bank write bursts (Count)
system.mem_ctrl.dram.perBankWrBursts::21            0                       # Per bank write bursts (Count)
system.mem_ctrl.dram.perBankWrBursts::22            0                       # Per bank write bursts (Count)
system.mem_ctrl.dram.perBankWrBursts::23            0                       # Per bank write bursts (Count)
system.mem_ctrl.dram.perBankWrBursts::24            0                       # Per bank write bursts (Count)
system.mem_ctrl.dram.perBankWrBursts::25            0                       # Per bank write bursts (Count)
system.mem_ctrl.dram.perBankWrBursts::26            0                       # Per bank write bursts (Count)
system.mem_ctrl.dram.perBankWrBursts::27            0                       # Per bank write bursts (Count)
system.mem_ctrl.dram.perBankWrBursts::28            0                       # Per bank write bursts (Count)
system.mem_ctrl.dram.perBankWrBursts::29            0                       # Per bank write bursts (Count)
system.mem_ctrl.dram.perBankWrBursts::30            0                       # Per bank write bursts (Count)
system.mem_ctrl.dram.perBankWrBursts::31            0                       # Per bank write bursts (Count)
system.mem_ctrl.dram.totQLat                  2139120                       # Total ticks spent queuing (Tick)
system.mem_ctrl.dram.totBusLat                1279488                       # Total ticks spent in databus transfers (Tick)
system.mem_ctrl.dram.totMemAccLat             8856048                       # Total ticks spent from burst creation until serviced by the DRAM (Tick)
system.mem_ctrl.dram.avgQLat                  5570.62                       # Average queueing delay per DRAM burst ((Tick/Count))
system.mem_ctrl.dram.avgBusLat                3332.00                       # Average bus latency per DRAM burst ((Tick/Count))
system.mem_ctrl.dram.avgMemAccLat            23062.62                       # Average memory access latency per DRAM burst ((Tick/Count))
system.mem_ctrl.dram.readRowHits                  322                       # Number of row buffer hits during reads (Count)
system.mem_ctrl.dram.writeRowHits                   0                       # Number of row buffer hits during writes (Count)
system.mem_ctrl.dram.readRowHitRate             83.85                       # Row buffer hit rate for reads (Ratio)
system.mem_ctrl.dram.writeRowHitRate              nan                       # Row buffer hit rate for writes (Ratio)
system.mem_ctrl.dram.bytesPerActivate::samples           57                       # Bytes accessed per row activation (Byte)
system.mem_ctrl.dram.bytesPerActivate::mean   397.473684                       # Bytes accessed per row activation (Byte)
system.mem_ctrl.dram.bytesPerActivate::gmean   260.155447                       # Bytes accessed per row activation (Byte)
system.mem_ctrl.dram.bytesPerActivate::stdev   340.108077                       # Bytes accessed per row activation (Byte)
system.mem_ctrl.dram.bytesPerActivate::0-127           13     22.81%     22.81% # Bytes accessed per row activation (Byte)
system.mem_ctrl.dram.bytesPerActivate::128-255           11     19.30%     42.11% # Bytes accessed per row activation (Byte)
system.mem_ctrl.dram.bytesPerActivate::256-383           11     19.30%     61.40% # Bytes accessed per row activation (Byte)
system.mem_ctrl.dram.bytesPerActivate::384-511            4      7.02%     68.42% # Bytes accessed per row activation (Byte)
system.mem_ctrl.dram.bytesPerActivate::512-639            5      8.77%     77.19% # Bytes accessed per row activation (Byte)
system.mem_ctrl.dram.bytesPerActivate::640-767            2      3.51%     80.70% # Bytes accessed per row activation (Byte)
system.mem_ctrl.dram.bytesPerActivate::768-895            1      1.75%     82.46% # Bytes accessed per row activation (Byte)
system.mem_ctrl.dram.bytesPerActivate::896-1023            2      3.51%     85.96% # Bytes accessed per row activation (Byte)
system.mem_ctrl.dram.bytesPerActivate::1024-1151            8     14.04%    100.00% # Bytes accessed per row activation (Byte)
system.mem_ctrl.dram.bytesPerActivate::total           57                       # Bytes accessed per row activation (Byte)
system.mem_ctrl.dram.bytesRead                  24576                       # Total bytes read (Byte)
system.mem_ctrl.dram.bytesWritten                   0                       # Total bytes written (Byte)
system.mem_ctrl.dram.avgRdBW               724.346788                       # Average DRAM read bandwidth in MiBytes/s ((Byte/Second))
system.mem_ctrl.dram.avgWrBW                        0                       # Average DRAM write bandwidth in MiBytes/s ((Byte/Second))
system.mem_ctrl.dram.peakBW                  19207.00                       # Theoretical peak bandwidth in MiByte/s ((Byte/Second))
system.mem_ctrl.dram.busUtil                     3.77                       # Data bus utilization in percentage (Ratio)
system.mem_ctrl.dram.busUtilRead                 3.77                       # Data bus utilization in percentage for reads (Ratio)
system.mem_ctrl.dram.busUtilWrite                0.00                       # Data bus utilization in percentage for writes (Ratio)
system.mem_ctrl.dram.pageHitRate                83.85                       # Row buffer hit rate, read and write combined (Ratio)
system.mem_ctrl.dram.power_state.pwrStateResidencyTicks::UNDEFINED     33928500                       # Cumulative time (in ticks) in various power states (Tick)
system.mem_ctrl.dram.rank0.actEnergy     109156.320000                       # Energy for activate commands per rank (pJ) (Joule)
system.mem_ctrl.dram.rank0.preEnergy     132682.905600                       # Energy for precharge commands per rank (pJ) (Joule)
system.mem_ctrl.dram.rank0.readEnergy    1068404.467200                       # Energy for read commands per rank (pJ) (Joule)
system.mem_ctrl.dram.rank0.writeEnergy              0                       # Energy for write commands per rank (pJ) (Joule)
system.mem_ctrl.dram.rank0.refreshEnergy 5541510.508800                       # Energy for refresh commands per rank (pJ) (Joule)
system.mem_ctrl.dram.rank0.actBackEnergy 28520987.040000                       # Energy for active background per rank (pJ) (Joule)
system.mem_ctrl.dram.rank0.preBackEnergy 234370.214400                       # Energy for precharge background per rank (pJ) (Joule)
system.mem_ctrl.dram.rank0.actPowerDownEnergy            0                       # Energy for active power-down per rank (pJ) (Joule)
system.mem_ctrl.dram.rank0.prePowerDownEnergy            0                       # Energy for precharge power-down per rank (pJ) (Joule)
system.mem_ctrl.dram.rank0.selfRefreshEnergy            0                       # Energy for self refresh per rank (pJ) (Joule)
system.mem_ctrl.dram.rank0.totalEnergy   35607111.456000                       # Total energy per rank (pJ) (Joule)
system.mem_ctrl.dram.rank0.averagePower   1049.474968                       # Core power per rank (mW) (Watt)
system.mem_ctrl.dram.rank0.totalIdleTime            0                       # Total Idle time Per DRAM Rank (Tick)
system.mem_ctrl.dram.rank0.pwrStateTime::IDLE       247300                       # Time in different power states (Tick)
system.mem_ctrl.dram.rank0.pwrStateTime::REF      1400000                       # Time in different power states (Tick)
system.mem_ctrl.dram.rank0.pwrStateTime::SREF            0                       # Time in different power states (Tick)
system.mem_ctrl.dram.rank0.pwrStateTime::PRE_PDN            0                       # Time in different power states (Tick)
system.mem_ctrl.dram.rank0.pwrStateTime::ACT     32281200                       # Time in different power states (Tick)
system.mem_ctrl.dram.rank0.pwrStateTime::ACT_PDN            0                       # Time in different power states (Tick)
system.mem_ctrl.dram.rank1.actEnergy     84206.304000                       # Energy for activate commands per rank (pJ) (Joule)
system.mem_ctrl.dram.rank1.preEnergy     103658.520000                       # Energy for precharge commands per rank (pJ) (Joule)
system.mem_ctrl.dram.rank1.readEnergy    546821.184000                       # Energy for read commands per rank (pJ) (Joule)
system.mem_ctrl.dram.rank1.writeEnergy              0                       # Energy for write commands per rank (pJ) (Joule)
system.mem_ctrl.dram.rank1.refreshEnergy 5541510.508800                       # Energy for refresh commands per rank (pJ) (Joule)
system.mem_ctrl.dram.rank1.actBackEnergy 27048936.096000                       # Energy for active background per rank (pJ) (Joule)
system.mem_ctrl.dram.rank1.preBackEnergy 1365437.606400                       # Energy for precharge background per rank (pJ) (Joule)
system.mem_ctrl.dram.rank1.actPowerDownEnergy            0                       # Energy for active power-down per rank (pJ) (Joule)
system.mem_ctrl.dram.rank1.prePowerDownEnergy            0                       # Energy for precharge power-down per rank (pJ) (Joule)
system.mem_ctrl.dram.rank1.selfRefreshEnergy            0                       # Energy for self refresh per rank (pJ) (Joule)
system.mem_ctrl.dram.rank1.totalEnergy   34690570.219200                       # Total energy per rank (pJ) (Joule)
system.mem_ctrl.dram.rank1.averagePower   1022.461064                       # Core power per rank (mW) (Watt)
system.mem_ctrl.dram.rank1.totalIdleTime            0                       # Total Idle time Per DRAM Rank (Tick)
system.mem_ctrl.dram.rank1.pwrStateTime::IDLE      1979660                       # Time in different power states (Tick)
system.mem_ctrl.dram.rank1.pwrStateTime::REF      1400000                       # Time in different power states (Tick)
system.mem_ctrl.dram.rank1.pwrStateTime::SREF            0                       # Time in different power states (Tick)
system.mem_ctrl.dram.rank1.pwrStateTime::PRE_PDN            0                       # Time in different power states (Tick)
system.mem_ctrl.dram.rank1.pwrStateTime::ACT     30548840                       # Time in different power states (Tick)
system.mem_ctrl.dram.rank1.pwrStateTime::ACT_PDN            0                       # Time in different power states (Tick)
system.mem_ctrl.power_state.pwrStateResidencyTicks::UNDEFINED     33928500                       # Cumulative time (in ticks) in various power states (Tick)
system.membus.transDist::ReadResp                 341                       # Transaction distribution (Count)
system.membus.transDist::ReadExReq                 43                       # Transaction distribution (Count)
system.membus.transDist::ReadExResp                43                       # Transaction distribution (Count)
system.membus.transDist::ReadSharedReq            341                       # Transaction distribution (Count)
system.membus.pktCount_system.l2icache.mem_side_port::system.mem_ctrl.port          484                       # Packet count per connected requestor and responder (Count)
system.membus.pktCount_system.l2dcache.mem_side_port::system.mem_ctrl.port          284                       # Packet count per connected requestor and responder (Count)
system.membus.pktCount::total                     768                       # Packet count per connected requestor and responder (Count)
system.membus.pktSize_system.l2icache.mem_side_port::system.mem_ctrl.port        15488                       # Cumulative packet size per connected requestor and responder (Byte)
system.membus.pktSize_system.l2dcache.mem_side_port::system.mem_ctrl.port         9088                       # Cumulative packet size per connected requestor and responder (Byte)
system.membus.pktSize::total                    24576                       # Cumulative packet size per connected requestor and responder (Byte)
system.membus.snoops                                0                       # Total snoops (Count)
system.membus.snoopTraffic                          0                       # Total snoop traffic (Byte)
system.membus.snoopFanout::samples                384                       # Request fanout histogram (Count)
system.membus.snoopFanout::mean              0.085938                       # Request fanout histogram (Count)
system.membus.snoopFanout::stdev             0.280637                       # Request fanout histogram (Count)
system.membus.snoopFanout::underflows               0      0.00%      0.00% # Request fanout histogram (Count)
system.membus.snoopFanout::0                      351     91.41%     91.41% # Request fanout histogram (Count)
system.membus.snoopFanout::1                       33      8.59%    100.00% # Request fanout histogram (Count)
system.membus.snoopFanout::2                        0      0.00%    100.00% # Request fanout histogram (Count)
system.membus.snoopFanout::overflows                0      0.00%    100.00% # Request fanout histogram (Count)
system.membus.snoopFanout::min_value                0                       # Request fanout histogram (Count)
system.membus.snoopFanout::max_value                1                       # Request fanout histogram (Count)
system.membus.snoopFanout::total                  384                       # Request fanout histogram (Count)
system.membus.power_state.pwrStateResidencyTicks::UNDEFINED     33928500                       # Cumulative time (in ticks) in various power states (Tick)
system.membus.reqLayer0.occupancy              192000                       # Layer occupancy (ticks) (Tick)
system.membus.reqLayer0.utilization               0.0                       # Layer utilization (Ratio)
system.membus.respLayer0.occupancy             619016                       # Layer occupancy (ticks) (Tick)
system.membus.respLayer0.utilization              0.0                       # Layer utilization (Ratio)
system.membus.respLayer1.occupancy             364436                       # Layer occupancy (ticks) (Tick)
system.membus.respLayer1.utilization              0.0                       # Layer utilization (Ratio)
system.membus.snoop_filter.totRequests            384                       # Total number of requests made to the snoop filter. (Count)
system.membus.snoop_filter.hitSingleRequests           33                       # Number of requests hitting in the snoop filter with a single holder of the requested data. (Count)
system.membus.snoop_filter.hitMultiRequests            0                       # Number of requests hitting in the snoop filter with multiple (>1) holders of the requested data. (Count)
system.membus.snoop_filter.totSnoops                0                       # Total number of snoops made to the snoop filter. (Count)
system.membus.snoop_filter.hitSingleSnoops            0                       # Number of snoops hitting in the snoop filter with a single holder of the requested data. (Count)
system.membus.snoop_filter.hitMultiSnoops            0                       # Number of snoops hitting in the snoop filter with multiple (>1) holders of the requested data. (Count)
system.workload.inst.arm                            0                       # number of arm instructions executed (Count)
system.workload.inst.quiesce                        0                       # number of quiesce instructions executed (Count)

---------- End Simulation Statistics   ----------
